/*---------------------------------------------------------------------------*\
| =========                 |                                                 |
| \\      /  F ield         | OpenFOAM: The Open Source CFD Toolbox           |
|  \\    /   O peration     | Version:  v2012                                 |
|   \\  /    A nd           | Website:  www.openfoam.com                      |
|    \\/     M anipulation  |                                                 |
\*---------------------------------------------------------------------------*/
Build  : _7bdb509494-20201222 OPENFOAM=2012
Arch   : "LSB;label=32;scalar=64"
Exec   : blockMesh
Date   : Sep 08 2022
Time   : 16:07:56
Host   : nb-dk1082448
PID    : 4074
I/O    : uncollated
Case   : /home/missios/OpenFOAM/missios-v2006/src/isoAdvectorDevelopment/porosityDevelopment/OFJ_resubmission/porosity/tutorials/discInConstantPorousFlow_test/RESULTS_porousInterIsoFoam_Co_0.25_nAlphaSubCycles_0
nProcs : 1
trapFpe: Floating point exception trapping enabled (FOAM_SIGFPE).
fileModificationChecking : Monitoring run-time modified files using timeStampMaster (fileModificationSkew 5, maxFileModificationPolls 20)
allowSystemOperations : Allowing user-supplied system call operations

// * * * * * * * * * * * * * * * * * * * * * * * * * * * * * * * * * * * * * //
Create time

Creating block mesh from "system/blockMeshDict"
Creating block edges
No non-planar block faces defined
Creating topology blocks
Creating topology patches

Creating block mesh topology

Check topology

	Basic statistics
		Number of internal faces : 0
		Number of boundary faces : 6
		Number of defined boundary faces : 6
		Number of undefined boundary faces : 0
	Checking patch -> block consistency

Creating block offsets
Creating merge list (topological search)...

Creating polyMesh from blockMesh
Creating patches
Creating cells
Creating points with scale 1
    Block 0 cell size :
        i : 0.05000000000000000971445147 .. 0.04999999999999715782905696
        j : 0.1000000000000000055511151 .. 0.1000000000000000055511151
        k : 0.05000000000000000971445147 .. 0.05000000000000248689957516


There are no merge patch pairs

Writing polyMesh with 0 cellZones
----------------
Mesh Information
----------------
  boundingBox: (0 -0.05000000000000001665334537 0) (20.00000000000000355271368 0.05000000000000001665334537 12.00000000000000177635684)
  nPoints: 193282
  nCells: 96000
  nFaces: 384640
  nInternalFaces: 191360
----------------
Patches
----------------
  patch 0 (start: 191360 size: 1280) name: rim
  patch 1 (start: 192640 size: 96000) name: front
  patch 2 (start: 288640 size: 96000) name: back

End

