/*---------------------------------------------------------------------------*\
| =========                 |                                                 |
| \\      /  F ield         | OpenFOAM: The Open Source CFD Toolbox           |
|  \\    /   O peration     | Version:  v2012                                 |
|   \\  /    A nd           | Website:  www.openfoam.com                      |
|    \\/     M anipulation  |                                                 |
\*---------------------------------------------------------------------------*/
Build  : _7bdb509494-20201222 OPENFOAM=2012
Arch   : "LSB;label=32;scalar=64"
Exec   : porousInterIsoFoam
Date   : Sep 08 2022
Time   : 16:07:59
Host   : nb-dk1082448
PID    : 4099
I/O    : uncollated
Case   : /home/missios/OpenFOAM/missios-v2006/src/isoAdvectorDevelopment/porosityDevelopment/OFJ_resubmission/porosity/tutorials/discInConstantPorousFlow_test/RESULTS_porousInterIsoFoam_Co_0.25_nAlphaSubCycles_0
nProcs : 1
trapFpe: Floating point exception trapping enabled (FOAM_SIGFPE).
fileModificationChecking : Monitoring run-time modified files using timeStampMaster (fileModificationSkew 5, maxFileModificationPolls 20)
allowSystemOperations : Allowing user-supplied system call operations

// * * * * * * * * * * * * * * * * * * * * * * * * * * * * * * * * * * * * * //
Create time

Create mesh for time = 0


PIMPLE: Operating solver in PISO mode

Reading field p_rgh

Reading field U

Reading/calculating face flux field phi

Reading transportProperties

Selecting incompressible transport model Newtonian
Selecting incompressible transport model Newtonian
Selecting turbulence model type laminar
Selecting laminar stress model Stokes

Reading g

Reading hRef
Calculating field g.h

No MRF models present

No finite volume options present
Selecting reconstructionScheme: plicRDF
time step continuity errors : sum local = 3.855910816332278612232598e-16, global = -5.648512618281840809118033e-17, cumulative = -5.648512618281840809118033e-17
Courant Number mean: 3.05732484076574095865908 max: 6.000000000000191846538655
--> FOAM Warning : 
    From void Foam::timeControl::read(const Foam::dictionary&)
    in file db/functionObjects/timeControl/timeControl.C at line 127
    Reading "/home/missios/OpenFOAM/missios-v2006/src/isoAdvectorDevelopment/porosityDevelopment/OFJ_resubmission/porosity/tutorials/discInConstantPorousFlow_test/RESULTS_porousInterIsoFoam_Co_0.25_nAlphaSubCycles_0/system/controlDict.functions.freeSurfaceFunc" at line 60 to 103
    Using deprecated 'outputControl'
    Please use 'writeControl' with 'writeInterval'
    This outputControl is deemed to be 54 months old.

--> FOAM IOWarning :
    Found [v1612] 'functionObjectLibs' entry instead of 'libs' in dictionary "/home/missios/OpenFOAM/missios-v2006/src/isoAdvectorDevelopment/porosityDevelopment/OFJ_resubmission/porosity/tutorials/discInConstantPorousFlow_test/RESULTS_porousInterIsoFoam_Co_0.25_nAlphaSubCycles_0/system/controlDict.functions.freeSurfaceFunc" 

    This keyword is deemed to be 48 months old.

Sampled surface:
    alpha_050 -> raw
    alpha_001 -> raw
    alpha_099 -> raw


Starting time loop

Courant Number mean: 0.1273885350319058640256031 max: 0.2500000000000079380946261
Interface Courant Number mean: 3.715498938425519117028512e-05 max: 0.1250000000000006661338148
deltaT = 0.004166666666666666608842551
Time = 0.00416667

PIMPLE: iteration 1
porousIsoAdvection: After conservative bounding: min(alpha) = 0, max(alpha) = 1 + 0
Phase-1 volume fraction = 0.0008260452399851885918816152  Min(alpha.water) = 0  Max(alpha.water) = 1
ExecutionTime = 0.699999999999999955591079 s  ClockTime = 0 s

Courant Number mean: 0.1273885350319058640256031 max: 0.2500000000000079380946261
Interface Courant Number mean: 3.980891719741627915798987e-05 max: 0.1250000000000006661338148
deltaT = 0.004166666666666666608842551
Time = 0.00833333

PIMPLE: iteration 1
porousIsoAdvection: After conservative bounding: min(alpha) = -2.117582368135750847670806e-22, max(alpha) = 1 + 0
Phase-1 volume fraction = 0.0008260452399851885918816152  Min(alpha.water) = -2.117582368135750847670806e-22  Max(alpha.water) = 1
ExecutionTime = 0.7600000000000000088817842 s  ClockTime = 0 s

Courant Number mean: 0.1273885350319058640256031 max: 0.2500000000000079380946261
Interface Courant Number mean: 4.511677282373845513339938e-05 max: 0.1250000000000006661338148
deltaT = 0.004166666666666666608842551
Time = 0.0125

PIMPLE: iteration 1
porousIsoAdvection: After conservative bounding: min(alpha) = -2.029349769463427503853072e-22, max(alpha) = 1 + 0
Phase-1 volume fraction = 0.0008260452399851885918816152  Min(alpha.water) = -2.029349769463427503853072e-22  Max(alpha.water) = 1
ExecutionTime = 0.8100000000000000532907052 s  ClockTime = 0 s

Courant Number mean: 0.1273885350319058640256031 max: 0.2500000000000079380946261
Interface Courant Number mean: 4.909766454348007356242936e-05 max: 0.1250000000000006661338148
deltaT = 0.004166666666666667476204289
Time = 0.0166667

PIMPLE: iteration 1
porousIsoAdvection: After conservative bounding: min(alpha) = -1.944793529069117485757617e-22, max(alpha) = 1 + 0
Phase-1 volume fraction = 0.0008260452399851882666209635  Min(alpha.water) = -1.944793529069117485757617e-22  Max(alpha.water) = 1
ExecutionTime = 0.8699999999999999955591079 s  ClockTime = 1 s

Courant Number mean: 0.1273885350319058917811788 max: 0.2500000000000079936057773
Interface Courant Number mean: 4.777070063689953634484056e-05 max: 0.1250000000000006938893904
deltaT = 0.004166666666666667476204289
Time = 0.0208333

PIMPLE: iteration 1
porousIsoAdvection: After conservative bounding: min(alpha) = -1.863760465357903679232994e-22, max(alpha) = 1 + 0
Phase-1 volume fraction = 0.0008260452399851885918816152  Min(alpha.water) = -1.863760465357903679232994e-22  Max(alpha.water) = 1
ExecutionTime = 0.9200000000000000399680289 s  ClockTime = 1 s

Courant Number mean: 0.1273885350319058917811788 max: 0.2500000000000079936057773
Interface Courant Number mean: 4.644373673031900590351534e-05 max: 0.1250000000000006938893904
deltaT = 0.004166666666666666608842551
Time = 0.025

PIMPLE: iteration 1
porousIsoAdvection: After conservative bounding: min(alpha) = -6.417551675260332004797828e-15, max(alpha) = 1 + 0
Phase-1 volume fraction = 0.0008260452399851885918816152  Min(alpha.water) = -6.417551675260332004797828e-15  Max(alpha.water) = 1
ExecutionTime = 0.9699999999999999733546474 s  ClockTime = 1 s

Courant Number mean: 0.1273885350319058640256031 max: 0.2500000000000079380946261
Interface Courant Number mean: 4.511677282373845513339938e-05 max: 0.1250000000000003330669074
deltaT = 0.004166666666666667476204289
Time = 0.0291667

PIMPLE: iteration 1
porousIsoAdvection: After conservative bounding: min(alpha) = -5.61379646472441191029424e-15, max(alpha) = 1 + 4.662936703425657469779253e-15
Phase-1 volume fraction = 0.0008260452399851885918816152  Min(alpha.water) = -5.61379646472441191029424e-15  Max(alpha.water) = 1.000000000000004662936703
ExecutionTime = 1.030000000000000026645353 s  ClockTime = 1 s

Courant Number mean: 0.1273885350319058917811788 max: 0.2500000000000079936057773
Interface Courant Number mean: 4.511677282373846868592654e-05 max: 0.125000000000000360822483
deltaT = 0.004166666666666666608842551
Time = 0.0333333

PIMPLE: iteration 1
porousIsoAdvection: After conservative bounding: min(alpha) = -8.425593556182775904825767e-13, max(alpha) = 1 + 3.996802888650563545525074e-15
Phase-1 volume fraction = 0.0008260452399851890255624842  Min(alpha.water) = -8.425593556182775904825767e-13  Max(alpha.water) = 1.000000000000003996802889
ExecutionTime = 1.080000000000000071054274 s  ClockTime = 1 s

Courant Number mean: 0.1273885350319058640256031 max: 0.2500000000000079380946261
Interface Courant Number mean: 4.511677282373845513339938e-05 max: 0.1250000000000003330669074
deltaT = 0.004166666666666667476204289
Time = 0.0375

PIMPLE: iteration 1
porousIsoAdvection: After conservative bounding: min(alpha) = -6.31922292271269866824899e-13, max(alpha) = 1 + 3.552713678800500929355621e-15
Phase-1 volume fraction = 0.0008260452399851888087220497  Min(alpha.water) = -6.31922292271269866824899e-13  Max(alpha.water) = 1.000000000000003552713679
ExecutionTime = 1.139999999999999902300374 s  ClockTime = 1 s

Courant Number mean: 0.1273885350319058917811788 max: 0.2500000000000079936057773
Interface Courant Number mean: 4.511677282373846190966296e-05 max: 0.125000000000000360822483
deltaT = 0.004166666666666666608842551
Time = 0.0416667

PIMPLE: iteration 1
porousIsoAdvection: After conservative bounding: min(alpha) = -4.739375558671100911226162e-13, max(alpha) = 1 + 8.881784197001252323389053e-15
Phase-1 volume fraction = 0.0008260452399851885918816152  Min(alpha.water) = -4.739375558671100911226162e-13  Max(alpha.water) = 1.000000000000008881784197
ExecutionTime = 1.199999999999999955591079 s  ClockTime = 1 s

Courant Number mean: 0.1273885350319058640256031 max: 0.2500000000000079380946261
Interface Courant Number mean: 4.777070063689954312110414e-05 max: 0.1250000000000003330669074
deltaT = 0.004166666666666667476204289
Time = 0.0458333

PIMPLE: iteration 1
porousIsoAdvection: After conservative bounding: min(alpha) = -4.146944361978675772508197e-13, max(alpha) = 1 + 7.771561172376095782965422e-15
Phase-1 volume fraction = 0.0008260452399851887003018325  Min(alpha.water) = -4.146944361978675772508197e-13  Max(alpha.water) = 1.000000000000007771561172
ExecutionTime = 1.260000000000000008881784 s  ClockTime = 1 s

Courant Number mean: 0.1273885350319058917811788 max: 0.2500000000000079936057773
Interface Courant Number mean: 4.644373673031900590351534e-05 max: 0.125000000000000360822483
deltaT = 0.004166666666666667476204289
Time = 0.05

PIMPLE: iteration 1
porousIsoAdvection: After conservative bounding: min(alpha) = -3.110204223795896780603854e-13, max(alpha) = 1 + 6.883382752675970550626516e-15
Phase-1 volume fraction = 0.0008260452399851883750411807  Min(alpha.water) = -3.110204223795896780603854e-13  Max(alpha.water) = 1.000000000000006883382753
ExecutionTime = 1.330000000000000071054274 s  ClockTime = 1 s

Courant Number mean: 0.1273885350319058917811788 max: 0.2500000000000079936057773
Interface Courant Number mean: 4.511677282373846190966296e-05 max: 0.125000000000000360822483
deltaT = 0.004166666666666667476204289
Time = 0.0541667

PIMPLE: iteration 1
porousIsoAdvection: After conservative bounding: min(alpha) = -2.332666467393572304746541e-13, max(alpha) = 1 + 5.995204332975845318287611e-15
Phase-1 volume fraction = 0.0008260452399851888087220497  Min(alpha.water) = -2.332666467393572304746541e-13  Max(alpha.water) = 1.000000000000005995204333
ExecutionTime = 1.389999999999999902300374 s  ClockTime = 1 s

Courant Number mean: 0.1273885350319058917811788 max: 0.2500000000000079936057773
Interface Courant Number mean: 4.777070063689954989736772e-05 max: 0.1250000000000004718447855
deltaT = 0.004166666666666667476204289
Time = 0.0583333

PIMPLE: iteration 1
porousIsoAdvection: After conservative bounding: min(alpha) = -2.041078243919527615876413e-13, max(alpha) = 1 + 5.329070518200751394033432e-15
Phase-1 volume fraction = 0.0008260452399851885918816152  Min(alpha.water) = -2.041078243919527615876413e-13  Max(alpha.water) = 1.000000000000005329070518
ExecutionTime = 1.449999999999999955591079 s  ClockTime = 1 s

Courant Number mean: 0.1273885350319058917811788 max: 0.2500000000000079936057773
Interface Courant Number mean: 4.644373673031900590351534e-05 max: 0.1250000000000004718447855
deltaT = 0.004166666666666667476204289
Time = 0.0625

PIMPLE: iteration 1
porousIsoAdvection: After conservative bounding: min(alpha) = -1.6158539711703511166671e-13, max(alpha) = 1 + 4.662936703425657469779253e-15
Phase-1 volume fraction = 0.0008260452399851882666209635  Min(alpha.water) = -1.6158539711703511166671e-13  Max(alpha.water) = 1.000000000000004662936703
ExecutionTime = 1.510000000000000008881784 s  ClockTime = 1 s

Courant Number mean: 0.1273885350319058917811788 max: 0.2500000000000079936057773
Interface Courant Number mean: 4.378980891715791791581058e-05 max: 0.1250000000000004718447855
deltaT = 0.004166666666666668343566027
Time = 0.0666667

PIMPLE: iteration 1
porousIsoAdvection: After conservative bounding: min(alpha) = -1.279218130740670664012091e-13, max(alpha) = 1 + 3.996802888650563545525074e-15
Phase-1 volume fraction = 0.0008260452399851883750411807  Min(alpha.water) = -1.279218130740670664012091e-13  Max(alpha.water) = 1.000000000000003996802889
ExecutionTime = 1.580000000000000071054274 s  ClockTime = 1 s

Courant Number mean: 0.1273885350319059195367544 max: 0.2500000000000080491169285
Interface Courant Number mean: 4.511677282373846868592654e-05 max: 0.1250000000000004996003611
deltaT = 0.004166666666666667476204289
Time = 0.0708333

PIMPLE: iteration 1
porousIsoAdvection: After conservative bounding: min(alpha) = -1.11931586439808698878276e-13, max(alpha) = 1 + 6.66133814775093924254179e-14
Phase-1 volume fraction = 0.0008260452399851882666209635  Min(alpha.water) = -1.11931586439808698878276e-13  Max(alpha.water) = 1.000000000000066613381478
ExecutionTime = 1.639999999999999902300374 s  ClockTime = 1 s

Courant Number mean: 0.1273885350319058917811788 max: 0.2500000000000079936057773
Interface Courant Number mean: 4.511677282373846190966296e-05 max: 0.1250000000000004718447855
deltaT = 0.004166666666666667476204289
Time = 0.075

PIMPLE: iteration 1
porousIsoAdvection: After conservative bounding: min(alpha) = -9.794013813483262098482241e-14, max(alpha) = 1 + 5.839773109528323402628303e-14
Phase-1 volume fraction = 0.0008260452399851883750411807  Min(alpha.water) = -9.794013813483262098482241e-14  Max(alpha.water) = 1.000000000000058397731095
ExecutionTime = 1.699999999999999955591079 s  ClockTime = 1 s

Courant Number mean: 0.1273885350319058917811788 max: 0.2500000000000079936057773
Interface Courant Number mean: 4.511677282373846190966296e-05 max: 0.1250000000000004718447855
deltaT = 0.004166666666666668343566027
Time = 0.0791667

PIMPLE: iteration 1
porousIsoAdvection: After conservative bounding: min(alpha) = -8.569762086797853231766693e-14, max(alpha) = 1 + 5.129230373768223216757178e-14
Phase-1 volume fraction = 0.0008260452399851882666209635  Min(alpha.water) = -8.569762086797853231766693e-14  Max(alpha.water) = 1.000000000000051292303738
ExecutionTime = 1.760000000000000008881784 s  ClockTime = 1 s

Courant Number mean: 0.1273885350319059195367544 max: 0.2500000000000080491169285
Interface Courant Number mean: 4.644373673031901267977892e-05 max: 0.1250000000000004996003611
deltaT = 0.004166666666666668343566027
Time = 0.0833333

PIMPLE: iteration 1
porousIsoAdvection: After conservative bounding: min(alpha) = -7.498541825948121262251494e-14, max(alpha) = 1 + 4.507505479978135554119945e-14
Phase-1 volume fraction = 0.0008260452399851887003018325  Min(alpha.water) = -7.498541825948121262251494e-14  Max(alpha.water) = 1.0000000000000450750548
ExecutionTime = 1.820000000000000062172489 s  ClockTime = 1 s

Courant Number mean: 0.1273885350319059195367544 max: 0.2500000000000080491169285
Interface Courant Number mean: 4.90976645434800938912201e-05 max: 0.1250000000000004996003611
deltaT = 0.004166666666666669210927765
Time = 0.0875

PIMPLE: iteration 1
porousIsoAdvection: After conservative bounding: min(alpha) = -6.561224097704605788925696e-14, max(alpha) = 1 + 3.952393967665557283908129e-14
Phase-1 volume fraction = 0.0008260452399851885918816152  Min(alpha.water) = -6.561224097704605788925696e-14  Max(alpha.water) = 1.000000000000039523939677
ExecutionTime = 1.87999999999999989341859 s  ClockTime = 2 s

Courant Number mean: 0.12738853503190594729233 max: 0.2500000000000081046280798
Interface Courant Number mean: 4.64437367303190194560425e-05 max: 0.1250000000000005273559367
deltaT = 0.004166666666666670078289503
Time = 0.0916667

PIMPLE: iteration 1
porousIsoAdvection: After conservative bounding: min(alpha) = -5.741071085491529907537803e-14, max(alpha) = 1 + 3.463895836830488406121731e-14
Phase-1 volume fraction = 0.0008260452399851883750411807  Min(alpha.water) = -5.741071085491529907537803e-14  Max(alpha.water) = 1.000000000000034638958368
ExecutionTime = 1.929999999999999937827511 s  ClockTime = 2 s

Courant Number mean: 0.1273885350319059750479056 max: 0.250000000000008160139231
Interface Courant Number mean: 4.511677282373848901471727e-05 max: 0.1250000000000005551115123
deltaT = 0.004166666666666672680374717
Time = 0.0958333

PIMPLE: iteration 1
porousIsoAdvection: After conservative bounding: min(alpha) = -5.023437199805088195779034e-14, max(alpha) = 1 + 3.042011087472928920760751e-14
Phase-1 volume fraction = 0.0008260452399851882666209635  Min(alpha.water) = -5.023437199805088195779034e-14  Max(alpha.water) = 1.000000000000030420110875
ExecutionTime = 1.989999999999999991118216 s  ClockTime = 2 s

Courant Number mean: 0.1273885350319060305590568 max: 0.2500000000000083266726847
Interface Courant Number mean: 3.84819532908357961505097e-05 max: 0.1250000000000006383782392
deltaT = 0.004166666666666679619268621
Time = 0.1

PIMPLE: iteration 1
porousIsoAdvection: After conservative bounding: min(alpha) = -4.395507549829451066901388e-14, max(alpha) = 1 + 2.686739719592878827825189e-14
Phase-1 volume fraction = 0.0008260452399851885918816152  Min(alpha.water) = -4.395507549829451066901388e-14  Max(alpha.water) = 1.000000000000026867397196
ExecutionTime = 2.509999999999999786837179 s  ClockTime = 2 s

--> FOAM Warning : 
    From void Foam::sampledSurfaces::countFields()
    in file sampledSurface/sampledSurfaces/sampledSurfaces.C at line 138
    
Cannot find registered field matching 1(alpha1)
Courant Number mean: 0.1273885350319062526036618 max: 0.2500000000000087152507433
Interface Courant Number mean: 3.715498938425532669555668e-05 max: 0.1250000000000008604228441
deltaT = 0.004166666666666666608842551
Time = 0.104167

PIMPLE: iteration 1
porousIsoAdvection: After conservative bounding: min(alpha) = -3.846069106100770314627438e-14, max(alpha) = 1 + 2.353672812205331865698099e-14
Phase-1 volume fraction = 0.0008260452399851882666209635  Min(alpha.water) = -3.846069106100770314627438e-14  Max(alpha.water) = 1.000000000000023536728122
ExecutionTime = 2.600000000000000088817842 s  ClockTime = 2 s

Courant Number mean: 0.1273885350319058640256031 max: 0.2500000000000079380946261
Interface Courant Number mean: 4.113588110399682315184225e-05 max: 0.1250000000000006106226635
deltaT = 0.004166666666666666608842551
Time = 0.108333

PIMPLE: iteration 1
porousIsoAdvection: After conservative bounding: min(alpha) = -3.365310467838174025299008e-14, max(alpha) = 1 + 2.065014825802791165187955e-14
Phase-1 volume fraction = 0.0008260452399851883750411807  Min(alpha.water) = -3.365310467838174025299008e-14  Max(alpha.water) = 1.000000000000020650148258
ExecutionTime = 2.649999999999999911182158 s  ClockTime = 2 s

Courant Number mean: 0.1273885350319058640256031 max: 0.2500000000000079380946261
Interface Courant Number mean: 4.511677282373844835713581e-05 max: 0.1250000000000006106226635
deltaT = 0.004166666666666666608842551
Time = 0.1125

PIMPLE: iteration 1
porousIsoAdvection: After conservative bounding: min(alpha) = -3.084913723552922853666894e-14, max(alpha) = 1 + 1.820765760385256726294756e-14
Phase-1 volume fraction = 0.0008260452399851883750411807  Min(alpha.water) = -3.084913723552922853666894e-14  Max(alpha.water) = 1.000000000000018207657604
ExecutionTime = 2.709999999999999964472863 s  ClockTime = 2 s

Courant Number mean: 0.1273885350319058640256031 max: 0.2500000000000079380946261
Interface Courant Number mean: 4.909766454348007356242936e-05 max: 0.1250000000000006106226635
deltaT = 0.004166666666666667476204289
Time = 0.116667

PIMPLE: iteration 1
porousIsoAdvection: After conservative bounding: min(alpha) = -2.944686729722007554826434e-14, max(alpha) = 1 + 1.59872115546022541821003e-14
Phase-1 volume fraction = 0.0008260452399851887003018325  Min(alpha.water) = -2.944686729722007554826434e-14  Max(alpha.water) = 1.000000000000015987211555
ExecutionTime = 2.759999999999999786837179 s  ClockTime = 2 s

Courant Number mean: 0.1273885350319058917811788 max: 0.2500000000000079936057773
Interface Courant Number mean: 4.909766454348008711495652e-05 max: 0.1250000000000006383782392
deltaT = 0.004166666666666667476204289
Time = 0.120833

PIMPLE: iteration 1
porousIsoAdvection: After conservative bounding: min(alpha) = -2.791314707418306207512523e-14, max(alpha) = 1 + 1.398881011027697240933776e-14
Phase-1 volume fraction = 0.0008260452399851879413603117  Min(alpha.water) = -2.791314707418306207512523e-14  Max(alpha.water) = 1.00000000000001398881011
ExecutionTime = 2.819999999999999840127884 s  ClockTime = 2 s

Courant Number mean: 0.1273885350319058917811788 max: 0.2500000000000079936057773
Interface Courant Number mean: 4.511677282373845513339938e-05 max: 0.1250000000000006383782392
deltaT = 0.004166666666666667476204289
Time = 0.125

PIMPLE: iteration 1
porousIsoAdvection: After conservative bounding: min(alpha) = -2.630274960538624065641199e-14, max(alpha) = 1 + 1.221245327087672194465995e-14
Phase-1 volume fraction = 0.0008260452399851885918816152  Min(alpha.water) = -2.630274960538624065641199e-14  Max(alpha.water) = 1.000000000000012212453271
ExecutionTime = 2.87000000000000010658141 s  ClockTime = 3 s

Courant Number mean: 0.1273885350319058917811788 max: 0.2500000000000079936057773
Interface Courant Number mean: 4.511677282373845513339938e-05 max: 0.1250000000000006383782392
deltaT = 0.004166666666666667476204289
Time = 0.129167

PIMPLE: iteration 1
porousIsoAdvection: After conservative bounding: min(alpha) = -2.465880858075450985941444e-14, max(alpha) = 1 + 1.065814103640150278806686e-14
Phase-1 volume fraction = 0.0008260452399851885918816152  Min(alpha.water) = -2.465880858075450985941444e-14  Max(alpha.water) = 1.000000000000010658141036
ExecutionTime = 2.919999999999999928945726 s  ClockTime = 3 s

Courant Number mean: 0.1273885350319058917811788 max: 0.2500000000000079936057773
Interface Courant Number mean: 4.511677282373845513339938e-05 max: 0.1250000000000006383782392
deltaT = 0.004166666666666666608842551
Time = 0.133333

PIMPLE: iteration 1
porousIsoAdvection: After conservative bounding: min(alpha) = -2.301487234969655318122023e-14, max(alpha) = 1 + 9.325873406851314939558506e-15
Phase-1 volume fraction = 0.0008260452399851882666209635  Min(alpha.water) = -2.301487234969655318122023e-14  Max(alpha.water) = 1.000000000000009325873407
ExecutionTime = 2.979999999999999982236432 s  ClockTime = 3 s

Courant Number mean: 0.1273885350319058640256031 max: 0.2500000000000079380946261
Interface Courant Number mean: 4.511677282373842802834507e-05 max: 0.1250000000000006106226635
deltaT = 0.004166666666666665741480813
Time = 0.1375

PIMPLE: iteration 1
porousIsoAdvection: After conservative bounding: min(alpha) = -2.139662629232879847747729e-14, max(alpha) = 1 + 8.659739592076221015304327e-15
Phase-1 volume fraction = 0.0008260452399851881582007462  Min(alpha.water) = -2.139662629232879847747729e-14  Max(alpha.water) = 1.000000000000008659739592
ExecutionTime = 3.040000000000000035527137 s  ClockTime = 3 s

Courant Number mean: 0.1273885350319058362700275 max: 0.2500000000000078825834748
Interface Courant Number mean: 4.511677282373842125208149e-05 max: 0.1250000000000005828670879
deltaT = 0.004166666666666666608842551
Time = 0.141667

PIMPLE: iteration 1
porousIsoAdvection: After conservative bounding: min(alpha) = -1.982333436883897208058029e-14, max(alpha) = 1 + 8.215650382226158399134874e-15
Phase-1 volume fraction = 0.0008260452399851883750411807  Min(alpha.water) = -1.982333436883897208058029e-14  Max(alpha.water) = 1.000000000000008215650382
ExecutionTime = 3.100000000000000088817842 s  ClockTime = 3 s

Courant Number mean: 0.1273885350319058640256031 max: 0.2500000000000079380946261
Interface Courant Number mean: 4.777070063689952279231341e-05 max: 0.1250000000000006106226635
deltaT = 0.004166666666666665741480813
Time = 0.145833

PIMPLE: iteration 1
porousIsoAdvection: After conservative bounding: min(alpha) = -1.830904314040396150334192e-14, max(alpha) = 1 + 7.771561172376095782965422e-15
Phase-1 volume fraction = 0.0008260452399851881582007462  Min(alpha.water) = -1.830904314040396150334192e-14  Max(alpha.water) = 1.000000000000007771561172
ExecutionTime = 3.149999999999999911182158 s  ClockTime = 3 s

Courant Number mean: 0.1273885350319058362700275 max: 0.2500000000000078825834748
Interface Courant Number mean: 4.644373673031897202219745e-05 max: 0.1250000000000005828670879
deltaT = 0.004166666666666664874119075
Time = 0.15

PIMPLE: iteration 1
porousIsoAdvection: After conservative bounding: min(alpha) = -1.686358511956459773779389e-14, max(alpha) = 1 + 7.327471962526033166795969e-15
Phase-1 volume fraction = 0.0008260452399851882666209635  Min(alpha.water) = -1.686358511956459773779389e-14  Max(alpha.water) = 1.000000000000007327471963
ExecutionTime = 3.209999999999999964472863 s  ClockTime = 3 s

Courant Number mean: 0.1273885350319058085144519 max: 0.2500000000000078825834748
Interface Courant Number mean: 4.511677282373841447581791e-05 max: 0.1250000000000005551115123
deltaT = 0.004166666666666665741480813
Time = 0.154167

PIMPLE: iteration 1
porousIsoAdvection: After conservative bounding: min(alpha) = -1.54934128048662649379916e-14, max(alpha) = 1 + 6.883382752675970550626516e-15
Phase-1 volume fraction = 0.0008260452399851881582007462  Min(alpha.water) = -1.54934128048662649379916e-14  Max(alpha.water) = 1.000000000000006883382753
ExecutionTime = 3.259999999999999786837179 s  ClockTime = 3 s

Courant Number mean: 0.1273885350319058362700275 max: 0.2500000000000078825834748
Interface Courant Number mean: 4.777070063689950923978625e-05 max: 0.1250000000000005828670879
deltaT = 0.004166666666666666608842551
Time = 0.158333

PIMPLE: iteration 1
porousIsoAdvection: After conservative bounding: min(alpha) = -1.441207774760024893400535e-14, max(alpha) = 1 + 6.439293542825907934457064e-15
Phase-1 volume fraction = 0.0008260452399851878329400945  Min(alpha.water) = -1.441207774760024893400535e-14  Max(alpha.water) = 1.000000000000006439293543
ExecutionTime = 3.319999999999999840127884 s  ClockTime = 3 s

Courant Number mean: 0.1273885350319058640256031 max: 0.2500000000000079380946261
Interface Courant Number mean: 4.777070063689952279231341e-05 max: 0.1250000000000005273559367
deltaT = 0.004166666666666665741480813
Time = 0.1625

PIMPLE: iteration 1
porousIsoAdvection: After conservative bounding: min(alpha) = -1.384014024143638560662263e-14, max(alpha) = 1 + 5.995204332975845318287611e-15
Phase-1 volume fraction = 0.0008260452399851879413603117  Min(alpha.water) = -1.384014024143638560662263e-14  Max(alpha.water) = 1.000000000000005995204333
ExecutionTime = 3.37000000000000010658141 s  ClockTime = 3 s

Courant Number mean: 0.1273885350319058362700275 max: 0.2500000000000078825834748
Interface Courant Number mean: 4.378980891715787048196554e-05 max: 0.1250000000000004996003611
deltaT = 0.004166666666666664006757337
Time = 0.166667

PIMPLE: iteration 1
porousIsoAdvection: After conservative bounding: min(alpha) = -1.323369104621931517480376e-14, max(alpha) = 1 + 5.551115123125782702118158e-15
Phase-1 volume fraction = 0.0008260452399851873992592255  Min(alpha.water) = -1.323369104621931517480376e-14  Max(alpha.water) = 1.000000000000005551115123
ExecutionTime = 3.430000000000000159872116 s  ClockTime = 3 s

Courant Number mean: 0.1273885350319057807588763 max: 0.2500000000000078270723236
Interface Courant Number mean: 4.511677282373839414702718e-05 max: 0.1250000000000004440892099
deltaT = 0.004166666666666665741480813
Time = 0.170833

PIMPLE: iteration 1
porousIsoAdvection: After conservative bounding: min(alpha) = -1.260433302659463941962807e-14, max(alpha) = 1 + 5.107025913275720085948706e-15
Phase-1 volume fraction = 0.0008260452399851875076794427  Min(alpha.water) = -1.260433302659463941962807e-14  Max(alpha.water) = 1.000000000000005107025913
ExecutionTime = 3.479999999999999982236432 s  ClockTime = 3 s

Courant Number mean: 0.1273885350319058362700275 max: 0.2500000000000078825834748
Interface Courant Number mean: 4.511677282373841447581791e-05 max: 0.1250000000000004996003611
deltaT = 0.004166666666666667476204289
Time = 0.175

PIMPLE: iteration 1
porousIsoAdvection: After conservative bounding: min(alpha) = -1.196205277383195641981817e-14, max(alpha) = 1 + 4.662936703425657469779253e-15
Phase-1 volume fraction = 0.0008260452399851879413603117  Min(alpha.water) = -1.196205277383195641981817e-14  Max(alpha.water) = 1.000000000000004662936703
ExecutionTime = 3.540000000000000035527137 s  ClockTime = 3 s

Courant Number mean: 0.1273885350319058917811788 max: 0.2500000000000079936057773
Interface Courant Number mean: 4.511677282373843480460865e-05 max: 0.1250000000000005551115123
deltaT = 0.004166666666666665741480813
Time = 0.179167

PIMPLE: iteration 1
porousIsoAdvection: After conservative bounding: min(alpha) = -1.131535022970327658847733e-14, max(alpha) = 1 + 8.215650382226158399134874e-15
Phase-1 volume fraction = 0.0008260452399851881582007462  Min(alpha.water) = -1.131535022970327658847733e-14  Max(alpha.water) = 1.000000000000008215650382
ExecutionTime = 3.589999999999999857891453 s  ClockTime = 3 s

Courant Number mean: 0.1273885350319058362700275 max: 0.2500000000000078825834748
Interface Courant Number mean: 4.644373673031897202219745e-05 max: 0.1250000000000004996003611
deltaT = 0.004166666666666663139395599
Time = 0.183333

PIMPLE: iteration 1
porousIsoAdvection: After conservative bounding: min(alpha) = -1.067137280237653417445265e-14, max(alpha) = 1 + 7.549516567451064474880695e-15
Phase-1 volume fraction = 0.0008260452399851881582007462  Min(alpha.water) = -1.067137280237653417445265e-14  Max(alpha.water) = 1.000000000000007549516567
ExecutionTime = 3.640000000000000124344979 s  ClockTime = 3 s

Courant Number mean: 0.1273885350319057530033007 max: 0.2500000000000077715611724
Interface Courant Number mean: 4.909766454348001935232074e-05 max: 0.1250000000000004163336342
deltaT = 0.004166666666666665741480813
Time = 0.1875

PIMPLE: iteration 1
porousIsoAdvection: After conservative bounding: min(alpha) = -1.036236439713026742191595e-14, max(alpha) = 1 + 6.883382752675970550626516e-15
Phase-1 volume fraction = 0.0008260452399851882666209635  Min(alpha.water) = -1.036236439713026742191595e-14  Max(alpha.water) = 1.000000000000006883382753
ExecutionTime = 3.700000000000000177635684 s  ClockTime = 3 s

Courant Number mean: 0.1273885350319058362700275 max: 0.2500000000000078825834748
Interface Courant Number mean: 4.644373673031897202219745e-05 max: 0.1250000000000004996003611
deltaT = 0.004166666666666670078289503
Time = 0.191667

PIMPLE: iteration 1
porousIsoAdvection: After conservative bounding: min(alpha) = -1.028416134805233398748716e-14, max(alpha) = 1 + 6.217248937900876626372337e-15
Phase-1 volume fraction = 0.0008260452399851875076794427  Min(alpha.water) = -1.028416134805233398748716e-14  Max(alpha.water) = 1.000000000000006217248938
ExecutionTime = 3.75 s  ClockTime = 3 s

Courant Number mean: 0.1273885350319059750479056 max: 0.250000000000008160139231
Interface Courant Number mean: 4.511677282373846868592654e-05 max: 0.1250000000000006383782392
deltaT = 0.004166666666666665741480813
Time = 0.195833

PIMPLE: iteration 1
porousIsoAdvection: After conservative bounding: min(alpha) = -1.014186747186219582654559e-14, max(alpha) = 1 + 5.773159728050814010202885e-15
Phase-1 volume fraction = 0.0008260452399851879413603117  Min(alpha.water) = -1.014186747186219582654559e-14  Max(alpha.water) = 1.000000000000005773159728
ExecutionTime = 3.799999999999999822364316 s  ClockTime = 3 s

Courant Number mean: 0.1273885350319058362700275 max: 0.2500000000000078825834748
Interface Courant Number mean: 3.848195329083571483534676e-05 max: 0.1250000000000004996003611
deltaT = 0.004166666666666651863693005
Time = 0.2

PIMPLE: iteration 1
porousIsoAdvection: After conservative bounding: min(alpha) = -9.945274530943326138986878e-15, max(alpha) = 1 + 5.329070518200751394033432e-15
Phase-1 volume fraction = 0.0008260452399851879413603117  Min(alpha.water) = -9.945274530943326138986878e-15  Max(alpha.water) = 1.000000000000005329070518
ExecutionTime = 4.299999999999999822364316 s  ClockTime = 4 s

--> FOAM Warning : 
    From void Foam::sampledSurfaces::countFields()
    in file sampledSurface/sampledSurfaces/sampledSurfaces.C at line 138
    
Cannot find registered field matching 1(alpha1)
Courant Number mean: 0.1273885350319053921808177 max: 0.2500000000000070499162064
Interface Courant Number mean: 3.715498938425504886874998e-05 max: 0.1250000000000000832667268
deltaT = 0.004166666666666668343566027
Time = 0.204167

PIMPLE: iteration 1
porousIsoAdvection: After conservative bounding: min(alpha) = -9.7033680087297541821582e-15, max(alpha) = 1 + 4.884981308350688777863979e-15
Phase-1 volume fraction = 0.0008260452399851881582007462  Min(alpha.water) = -9.7033680087297541821582e-15  Max(alpha.water) = 1.000000000000004884981308
ExecutionTime = 4.389999999999999680255769 s  ClockTime = 4 s

Courant Number mean: 0.1273885350319059195367544 max: 0.2500000000000080491169285
Interface Courant Number mean: 4.113588110399681637557867e-05 max: 0.1250000000000006383782392
deltaT = 0.004166666666666667476204289
Time = 0.208333

PIMPLE: iteration 1
porousIsoAdvection: After conservative bounding: min(alpha) = -9.424332073585437762849962e-15, max(alpha) = 1 + 4.440892098500626161694527e-15
Phase-1 volume fraction = 0.0008260452399851881582007462  Min(alpha.water) = -9.424332073585437762849962e-15  Max(alpha.water) = 1.000000000000004440892099
ExecutionTime = 4.440000000000000390798505 s  ClockTime = 4 s

Courant Number mean: 0.1273885350319058917811788 max: 0.2500000000000079936057773
Interface Courant Number mean: 4.511677282373844158087223e-05 max: 0.1250000000000006106226635
deltaT = 0.004166666666666666608842551
Time = 0.2125

PIMPLE: iteration 1
porousIsoAdvection: After conservative bounding: min(alpha) = -9.115566798426414696046308e-15, max(alpha) = 1 + 4.2188474935755948536098e-15
Phase-1 volume fraction = 0.0008260452399851882666209635  Min(alpha.water) = -9.115566798426414696046308e-15  Max(alpha.water) = 1.000000000000004218847494
ExecutionTime = 4.490000000000000213162821 s  ClockTime = 4 s

Courant Number mean: 0.1273885350319058640256031 max: 0.2500000000000079380946261
Interface Courant Number mean: 4.90976645434800600099022e-05 max: 0.1250000000000005828670879
deltaT = 0.004166666666666666608842551
Time = 0.216667

PIMPLE: iteration 1
porousIsoAdvection: After conservative bounding: min(alpha) = -8.783714951337972777150495e-15, max(alpha) = 1 + 3.996802888650563545525074e-15
Phase-1 volume fraction = 0.0008260452399851883750411807  Min(alpha.water) = -8.783714951337972777150495e-15  Max(alpha.water) = 1.000000000000003996802889
ExecutionTime = 4.549999999999999822364316 s  ClockTime = 4 s

Courant Number mean: 0.1273885350319058640256031 max: 0.2500000000000079380946261
Interface Courant Number mean: 4.90976645434800600099022e-05 max: 0.1250000000000005828670879
deltaT = 0.004166666666666665741480813
Time = 0.220833

PIMPLE: iteration 1
porousIsoAdvection: After conservative bounding: min(alpha) = -8.434696023902193849518298e-15, max(alpha) = 1 + 3.774758283725532237440348e-15
Phase-1 volume fraction = 0.0008260452399851882666209635  Min(alpha.water) = -8.434696023902193849518298e-15  Max(alpha.water) = 1.000000000000003774758284
ExecutionTime = 4.599999999999999644728632 s  ClockTime = 4 s

Courant Number mean: 0.1273885350319058362700275 max: 0.2500000000000078825834748
Interface Courant Number mean: 4.511677282373842125208149e-05 max: 0.1250000000000005551115123
deltaT = 0.004166666666666666608842551
Time = 0.225

PIMPLE: iteration 1
porousIsoAdvection: After conservative bounding: min(alpha) = -8.07374549441802961949631e-15, max(alpha) = 1 + 3.552713678800500929355621e-15
Phase-1 volume fraction = 0.0008260452399851879413603117  Min(alpha.water) = -8.07374549441802961949631e-15  Max(alpha.water) = 1.000000000000003552713679
ExecutionTime = 4.650000000000000355271368 s  ClockTime = 4 s

Courant Number mean: 0.1273885350319058640256031 max: 0.2500000000000079380946261
Interface Courant Number mean: 4.511677282373844835713581e-05 max: 0.1250000000000005828670879
deltaT = 0.004166666666666665741480813
Time = 0.229167

PIMPLE: iteration 1
porousIsoAdvection: After conservative bounding: min(alpha) = -7.705457628197498598792348e-15, max(alpha) = 1 + 3.330669073875469621270895e-15
Phase-1 volume fraction = 0.0008260452399851881582007462  Min(alpha.water) = -7.705457628197498598792348e-15  Max(alpha.water) = 1.000000000000003330669074
ExecutionTime = 4.700000000000000177635684 s  ClockTime = 4 s

Courant Number mean: 0.1273885350319058362700275 max: 0.2500000000000078825834748
Interface Courant Number mean: 4.511677282373842125208149e-05 max: 0.1250000000000005551115123
deltaT = 0.004166666666666664874119075
Time = 0.233333

PIMPLE: iteration 1
porousIsoAdvection: After conservative bounding: min(alpha) = -7.333830394301196464096895e-15, max(alpha) = 1 + 3.108624468950438313186169e-15
Phase-1 volume fraction = 0.0008260452399851879413603117  Min(alpha.water) = -7.333830394301196464096895e-15  Max(alpha.water) = 1.000000000000003108624469
ExecutionTime = 4.759999999999999786837179 s  ClockTime = 4 s

Courant Number mean: 0.1273885350319058085144519 max: 0.2500000000000078825834748
Interface Courant Number mean: 4.511677282373841447581791e-05 max: 0.1250000000000005273559367
deltaT = 0.004166666666666665741480813
Time = 0.2375

PIMPLE: iteration 1
porousIsoAdvection: After conservative bounding: min(alpha) = -6.96231132663109207922851e-15, max(alpha) = 1 + 2.886579864025407005101442e-15
Phase-1 volume fraction = 0.0008260452399851878329400945  Min(alpha.water) = -6.96231132663109207922851e-15  Max(alpha.water) = 1.000000000000002886579864
ExecutionTime = 4.809999999999999609201495 s  ClockTime = 4 s

Courant Number mean: 0.1273885350319058362700275 max: 0.2500000000000078825834748
Interface Courant Number mean: 4.511677282373841447581791e-05 max: 0.1250000000000005551115123
deltaT = 0.004166666666666666608842551
Time = 0.241667

PIMPLE: iteration 1
porousIsoAdvection: After conservative bounding: min(alpha) = -6.821716293248815385889072e-15, max(alpha) = 1 + 2.664535259100375697016716e-15
Phase-1 volume fraction = 0.0008260452399851885918816152  Min(alpha.water) = -6.821716293248815385889072e-15  Max(alpha.water) = 1.000000000000002664535259
ExecutionTime = 4.860000000000000319744231 s  ClockTime = 5 s

Courant Number mean: 0.1273885350319058640256031 max: 0.2500000000000079380946261
Interface Courant Number mean: 4.777070063689952279231341e-05 max: 0.1250000000000005828670879
deltaT = 0.004166666666666665741480813
Time = 0.245833

PIMPLE: iteration 1
porousIsoAdvection: After conservative bounding: min(alpha) = -6.692373040145286647957228e-15, max(alpha) = 1 + 2.664535259100375697016716e-15
Phase-1 volume fraction = 0.0008260452399851882666209635  Min(alpha.water) = -6.692373040145286647957228e-15  Max(alpha.water) = 1.000000000000002664535259
ExecutionTime = 4.919999999999999928945726 s  ClockTime = 5 s

Courant Number mean: 0.1273885350319058362700275 max: 0.2500000000000078825834748
Interface Courant Number mean: 4.511677282373841447581791e-05 max: 0.1250000000000005551115123
deltaT = 0.004166666666666664874119075
Time = 0.25

PIMPLE: iteration 1
porousIsoAdvection: After conservative bounding: min(alpha) = -6.539550247098497299687384e-15, max(alpha) = 1 + 2.664535259100375697016716e-15
Phase-1 volume fraction = 0.0008260452399851882666209635  Min(alpha.water) = -6.539550247098497299687384e-15  Max(alpha.water) = 1.000000000000002664535259
ExecutionTime = 4.969999999999999751310042 s  ClockTime = 5 s

Courant Number mean: 0.1273885350319058085144519 max: 0.2500000000000078825834748
Interface Courant Number mean: 4.644373673031894491714314e-05 max: 0.1250000000000005273559367
deltaT = 0.004166666666666665741480813
Time = 0.254167

PIMPLE: iteration 1
porousIsoAdvection: After conservative bounding: min(alpha) = -6.366993748788242460012884e-15, max(alpha) = 1 + 2.664535259100375697016716e-15
Phase-1 volume fraction = 0.0008260452399851885918816152  Min(alpha.water) = -6.366993748788242460012884e-15  Max(alpha.water) = 1.000000000000002664535259
ExecutionTime = 5.019999999999999573674359 s  ClockTime = 5 s

Courant Number mean: 0.1273885350319058362700275 max: 0.2500000000000078825834748
Interface Courant Number mean: 4.909766454348004645737505e-05 max: 0.2500000000000005551115123
deltaT = 0.004166666666666666608842551
Time = 0.258333

PIMPLE: iteration 1
porousIsoAdvection: After conservative bounding: min(alpha) = -6.17816825077668117522234e-15, max(alpha) = 1 + 2.664535259100375697016716e-15
Phase-1 volume fraction = 0.0008260452399851881582007462  Min(alpha.water) = -6.17816825077668117522234e-15  Max(alpha.water) = 1.000000000000002664535259
ExecutionTime = 5.070000000000000284217094 s  ClockTime = 5 s

Courant Number mean: 0.1273885350319058640256031 max: 0.2500000000000079380946261
Interface Courant Number mean: 4.777070063689952279231341e-05 max: 0.2500000000000006106226635
deltaT = 0.004166666666666668343566027
Time = 0.2625

PIMPLE: iteration 1
porousIsoAdvection: After conservative bounding: min(alpha) = -5.976256040755991959162251e-15, max(alpha) = 1 + 2.664535259100375697016716e-15
Phase-1 volume fraction = 0.0008260452399851887003018325  Min(alpha.water) = -5.976256040755991959162251e-15  Max(alpha.water) = 1.000000000000002664535259
ExecutionTime = 5.12999999999999989341859 s  ClockTime = 5 s

Courant Number mean: 0.1273885350319059195367544 max: 0.2500000000000080491169285
Interface Courant Number mean: 4.511677282373844158087223e-05 max: 0.250000000000000721644966
deltaT = 0.004166666666666670078289503
Time = 0.266667

PIMPLE: iteration 1
porousIsoAdvection: After conservative bounding: min(alpha) = -5.764159879647899224389316e-15, max(alpha) = 1 + 2.44249065417534438893199e-15
Phase-1 volume fraction = 0.0008260452399851887003018325  Min(alpha.water) = -5.764159879647899224389316e-15  Max(alpha.water) = 1.000000000000002442490654
ExecutionTime = 5.179999999999999715782906 s  ClockTime = 5 s

Courant Number mean: 0.1273885350319059750479056 max: 0.250000000000008160139231
Interface Courant Number mean: 4.511677282373846190966296e-05 max: 0.2500000000000008326672685
deltaT = 0.004166666666666672680374717
Time = 0.270833

PIMPLE: iteration 1
porousIsoAdvection: After conservative bounding: min(alpha) = -5.544509296304879248044714e-15, max(alpha) = 1 + 2.44249065417534438893199e-15
Phase-1 volume fraction = 0.0008260452399851887003018325  Min(alpha.water) = -5.544509296304879248044714e-15  Max(alpha.water) = 1.000000000000002442490654
ExecutionTime = 5.240000000000000213162821 s  ClockTime = 5 s

Courant Number mean: 0.1273885350319060305590568 max: 0.2500000000000083266726847
Interface Courant Number mean: 4.511677282373848901471727e-05 max: 0.2500000000000009992007222
deltaT = 0.004166666666666675282459931
Time = 0.275

PIMPLE: iteration 1
porousIsoAdvection: After conservative bounding: min(alpha) = -5.319669595649701102200133e-15, max(alpha) = 1 + 9.547918011776346247643232e-15
Phase-1 volume fraction = 0.0008260452399851881582007462  Min(alpha.water) = -5.319669595649701102200133e-15  Max(alpha.water) = 1.000000000000009547918012
ExecutionTime = 5.290000000000000035527137 s  ClockTime = 5 s

Courant Number mean: 0.1273885350319061138257837 max: 0.2500000000000084932061384
Interface Courant Number mean: 4.511677282373850934350801e-05 max: 0.2500000000000011657341759
deltaT = 0.004166666666666679619268621
Time = 0.279167

PIMPLE: iteration 1
porousIsoAdvection: After conservative bounding: min(alpha) = -5.091752972176455615286348e-15, max(alpha) = 1 + 8.437694987151189707219601e-15
Phase-1 volume fraction = 0.0008260452399851879413603117  Min(alpha.water) = -5.091752972176455615286348e-15  Max(alpha.water) = 1.000000000000008437694987
ExecutionTime = 5.339999999999999857891453 s  ClockTime = 5 s

Courant Number mean: 0.1273885350319062526036618 max: 0.2500000000000087152507433
Interface Courant Number mean: 4.777070063689967187011212e-05 max: 0.2500000000000015543122345
deltaT = 0.004166666666666674415098193
Time = 0.283333

PIMPLE: iteration 1
porousIsoAdvection: After conservative bounding: min(alpha) = -4.898493828433464777519402e-15, max(alpha) = 1 + 7.327471962526033166795969e-15
Phase-1 volume fraction = 0.00082604523998518761609966  Min(alpha.water) = -4.898493828433464777519402e-15  Max(alpha.water) = 1.000000000000007327471963
ExecutionTime = 5.389999999999999680255769 s  ClockTime = 5 s

Courant Number mean: 0.1273885350319060860702081 max: 0.2500000000000084376949872
Interface Courant Number mean: 5.175159235664126319408779e-05 max: 0.2500000000000012767564783
deltaT = 0.004166666666666679619268621
Time = 0.2875

PIMPLE: iteration 1
porousIsoAdvection: After conservative bounding: min(alpha) = -4.811154929555689864320335e-15, max(alpha) = 1 + 6.439293542825907934457064e-15
Phase-1 volume fraction = 0.0008260452399851881582007462  Min(alpha.water) = -4.811154929555689864320335e-15  Max(alpha.water) = 1.000000000000006439293543
ExecutionTime = 5.450000000000000177635684 s  ClockTime = 5 s

Courant Number mean: 0.1273885350319062526036618 max: 0.2500000000000087152507433
Interface Courant Number mean: 4.909766454348023619275523e-05 max: 0.2500000000000015543122345
deltaT = 0.004166666666666689160247738
Time = 0.291667

PIMPLE: iteration 1
porousIsoAdvection: After conservative bounding: min(alpha) = -4.709575054424467991436205e-15, max(alpha) = 1 + 5.551115123125782702118158e-15
Phase-1 volume fraction = 0.0008260452399851881582007462  Min(alpha.water) = -4.709575054424467991436205e-15  Max(alpha.water) = 1.000000000000005551115123
ExecutionTime = 5.5 s  ClockTime = 5 s

Courant Number mean: 0.1273885350319065579149935 max: 0.2500000000000093258734069
Interface Courant Number mean: 4.511677282373869230262461e-05 max: 0.250000000000002164934898
deltaT = 0.004166666666666679619268621
Time = 0.295833

PIMPLE: iteration 1
porousIsoAdvection: After conservative bounding: min(alpha) = -4.595809942151356255036047e-15, max(alpha) = 1 + 6.66133814775093924254179e-15
Phase-1 volume fraction = 0.0008260452399851875076794427  Min(alpha.water) = -4.595809942151356255036047e-15  Max(alpha.water) = 1.000000000000006661338148
ExecutionTime = 5.549999999999999822364316 s  ClockTime = 5 s

Courant Number mean: 0.1273885350319062526036618 max: 0.2500000000000087152507433
Interface Courant Number mean: 4.113588110399694512458665e-05 max: 0.2500000000000015543122345
deltaT = 0.004166666666666651863693005
Time = 0.3

PIMPLE: iteration 1
porousIsoAdvection: After conservative bounding: min(alpha) = -4.471784304134726354915921e-15, max(alpha) = 1 + 5.107025913275720085948706e-15
Phase-1 volume fraction = 0.0008260452399851878329400945  Min(alpha.water) = -4.471784304134726354915921e-15  Max(alpha.water) = 1.000000000000005107025913
ExecutionTime = 6.049999999999999822364316 s  ClockTime = 6 s

--> FOAM Warning : 
    From void Foam::sampledSurfaces::countFields()
    in file sampledSurface/sampledSurfaces/sampledSurfaces.C at line 138
    
Cannot find registered field matching 1(alpha1)
Courant Number mean: 0.1273885350319053921808177 max: 0.2500000000000070499162064
Interface Courant Number mean: 3.980891719741613685645473e-05 max: 0.25
deltaT = 0.004166666666666665741480813
Time = 0.304167

PIMPLE: iteration 1
porousIsoAdvection: After conservative bounding: min(alpha) = -4.339289032198742824923581e-15, max(alpha) = 1 + 3.996802888650563545525074e-15
Phase-1 volume fraction = 0.0008260452399851873992592255  Min(alpha.water) = -4.339289032198742824923581e-15  Max(alpha.water) = 1.000000000000003996802889
ExecutionTime = 6.139999999999999680255769 s  ClockTime = 6 s

Courant Number mean: 0.1273885350319058362700275 max: 0.2500000000000078825834748
Interface Courant Number mean: 4.644373673031898557472461e-05 max: 0.2500000000000008326672685
deltaT = 0.004166666666666666608842551
Time = 0.308333

PIMPLE: iteration 1
porousIsoAdvection: After conservative bounding: min(alpha) = -4.212508991706789389776078e-15, max(alpha) = 1 + 3.330669073875469621270895e-15
Phase-1 volume fraction = 0.00082604523998518761609966  Min(alpha.water) = -4.212508991706789389776078e-15  Max(alpha.water) = 1.000000000000003330669074
ExecutionTime = 6.190000000000000390798505 s  ClockTime = 6 s

Courant Number mean: 0.1273885350319058640256031 max: 0.2500000000000079380946261
Interface Courant Number mean: 4.909766454348008033869294e-05 max: 0.2500000000000008881784197
deltaT = 0.004166666666666666608842551
Time = 0.3125

PIMPLE: iteration 1
porousIsoAdvection: After conservative bounding: min(alpha) = -4.203384782280788576031681e-15, max(alpha) = 1 + 1.065814103640150278806686e-14
Phase-1 volume fraction = 0.0008260452399851875076794427  Min(alpha.water) = -4.203384782280788576031681e-15  Max(alpha.water) = 1.000000000000010658141036
ExecutionTime = 6.240000000000000213162821 s  ClockTime = 6 s

Courant Number mean: 0.1273885350319058640256031 max: 0.2500000000000079380946261
Interface Courant Number mean: 4.909766454348008033869294e-05 max: 0.2500000000000008881784197
deltaT = 0.004166666666666667476204289
Time = 0.316667

PIMPLE: iteration 1
porousIsoAdvection: After conservative bounding: min(alpha) = -4.177706997838690276527844e-15, max(alpha) = 1 + 8.215650382226158399134874e-15
Phase-1 volume fraction = 0.00082604523998518761609966  Min(alpha.water) = -4.177706997838690276527844e-15  Max(alpha.water) = 1.000000000000008215650382
ExecutionTime = 6.290000000000000035527137 s  ClockTime = 6 s

Courant Number mean: 0.1273885350319058917811788 max: 0.2500000000000079936057773
Interface Courant Number mean: 5.175159235664118187892485e-05 max: 0.2500000000000009436895709
deltaT = 0.004166666666666668343566027
Time = 0.320833

PIMPLE: iteration 1
porousIsoAdvection: After conservative bounding: min(alpha) = -4.137051620202505473322236e-15, max(alpha) = 1 + 6.439293542825907934457064e-15
Phase-1 volume fraction = 0.0008260452399851878329400945  Min(alpha.water) = -4.137051620202505473322236e-15  Max(alpha.water) = 1.000000000000006439293543
ExecutionTime = 6.349999999999999644728632 s  ClockTime = 6 s

Courant Number mean: 0.1273885350319059195367544 max: 0.2500000000000080491169285
Interface Courant Number mean: 4.909766454348011422001083e-05 max: 0.2500000000000009992007222
deltaT = 0.004166666666666669210927765
Time = 0.325

PIMPLE: iteration 1
porousIsoAdvection: After conservative bounding: min(alpha) = -4.08295358631539869634142e-15, max(alpha) = 1 + 4.884981308350688777863979e-15
Phase-1 volume fraction = 0.0008260452399851879413603117  Min(alpha.water) = -4.08295358631539869634142e-15  Max(alpha.water) = 1.000000000000004884981308
ExecutionTime = 6.400000000000000355271368 s  ClockTime = 6 s

Courant Number mean: 0.12738853503190594729233 max: 0.2500000000000081046280798
Interface Courant Number mean: 4.777070063689957700242203e-05 max: 0.2500000000000010547118734
deltaT = 0.004166666666666670078289503
Time = 0.329167

PIMPLE: iteration 1
porousIsoAdvection: After conservative bounding: min(alpha) = -4.01689678003746304543067e-15, max(alpha) = 1 + 5.29798427351124701090157e-13
Phase-1 volume fraction = 0.0008260452399851875076794427  Min(alpha.water) = -4.01689678003746304543067e-15  Max(alpha.water) = 1.000000000000529798427351
ExecutionTime = 6.450000000000000177635684 s  ClockTime = 6 s

Courant Number mean: 0.1273885350319059750479056 max: 0.250000000000008160139231
Interface Courant Number mean: 5.175159235664121576024274e-05 max: 0.2500000000000013322676296
deltaT = 0.004166666666666671813012979
Time = 0.333333

PIMPLE: iteration 1
porousIsoAdvection: After conservative bounding: min(alpha) = -3.940305880740089064861208e-15, max(alpha) = 1 + 2.657873920952624757774174e-13
Phase-1 volume fraction = 0.0008260452399851878329400945  Min(alpha.water) = -3.940305880740089064861208e-15  Max(alpha.water) = 1.000000000000265787392095
ExecutionTime = 6.509999999999999786837179 s  ClockTime = 6 s

Courant Number mean: 0.1273885350319060028034812 max: 0.2500000000000082711615335
Interface Courant Number mean: 5.175159235664123608903348e-05 max: 0.250000000000001443289932
deltaT = 0.004166666666666672680374717
Time = 0.3375

PIMPLE: iteration 1
porousIsoAdvection: After conservative bounding: min(alpha) = -3.85453991074013901237977e-15, max(alpha) = 1 + 1.334488075599438161589205e-13
Phase-1 volume fraction = 0.0008260452399851885918816152  Min(alpha.water) = -3.85453991074013901237977e-15  Max(alpha.water) = 1.00000000000013344880756
ExecutionTime = 6.559999999999999609201495 s  ClockTime = 6 s

Courant Number mean: 0.1273885350319060305590568 max: 0.2500000000000083266726847
Interface Courant Number mean: 5.04246284500606920951811e-05 max: 0.2500000000000020539125956
deltaT = 0.004166666666666674415098193
Time = 0.341667

PIMPLE: iteration 1
porousIsoAdvection: After conservative bounding: min(alpha) = -3.760887323827710046432561e-15, max(alpha) = 1 + 6.727951529228448634967208e-14
Phase-1 volume fraction = 0.0008260452399851878329400945  Min(alpha.water) = -3.760887323827710046432561e-15  Max(alpha.water) = 1.000000000000067279515292
ExecutionTime = 6.610000000000000319744231 s  ClockTime = 6 s

Courant Number mean: 0.1273885350319060860702081 max: 0.2500000000000084376949872
Interface Courant Number mean: 5.175159235664126319408779e-05 max: 0.250000000000002164934898
deltaT = 0.004166666666666675282459931
Time = 0.345833

PIMPLE: iteration 1
porousIsoAdvection: After conservative bounding: min(alpha) = -3.660562479702268129811372e-15, max(alpha) = 1 + 3.952393967665557283908129e-14
Phase-1 volume fraction = 0.0008260452399851883750411807  Min(alpha.water) = -3.660562479702268129811372e-15  Max(alpha.water) = 1.000000000000039523939677
ExecutionTime = 6.660000000000000142108547 s  ClockTime = 6 s

Courant Number mean: 0.1273885350319061138257837 max: 0.2500000000000084932061384
Interface Courant Number mean: 5.042462845006071242397183e-05 max: 0.2500000000000022204460493
deltaT = 0.004166666666666677884545145
Time = 0.35

PIMPLE: iteration 1
porousIsoAdvection: After conservative bounding: min(alpha) = -3.554703353607053222006078e-15, max(alpha) = 1 + 2.997602166487922659143806e-14
Phase-1 volume fraction = 0.0008260452399851878329400945  Min(alpha.water) = -3.554703353607053222006078e-15  Max(alpha.water) = 1.000000000000029976021665
ExecutionTime = 6.719999999999999751310042 s  ClockTime = 6 s

Courant Number mean: 0.1273885350319061970925105 max: 0.2500000000000086597395921
Interface Courant Number mean: 4.644373673031910754746901e-05 max: 0.2500000000000023869795029
deltaT = 0.004166666666666679619268621
Time = 0.354167

PIMPLE: iteration 1
porousIsoAdvection: After conservative bounding: min(alpha) = -3.444370336447944662022396e-15, max(alpha) = 1 + 2.264854970235319342464209e-14
Phase-1 volume fraction = 0.0008260452399851879413603117  Min(alpha.water) = -3.444370336447944662022396e-15  Max(alpha.water) = 1.000000000000022648549702
ExecutionTime = 6.769999999999999573674359 s  ClockTime = 6 s

Courant Number mean: 0.1273885350319062526036618 max: 0.2500000000000087152507433
Interface Courant Number mean: 5.175159235664129707540568e-05 max: 0.2500000000000024424906542
deltaT = 0.004166666666666682221353835
Time = 0.358333

PIMPLE: iteration 1
porousIsoAdvection: After conservative bounding: min(alpha) = -3.360818569693498263085938e-15, max(alpha) = 1 + 1.709743457922741072252393e-14
Phase-1 volume fraction = 0.0008260452399851881582007462  Min(alpha.water) = -3.360818569693498263085938e-15  Max(alpha.water) = 1.000000000000017097434579
ExecutionTime = 6.820000000000000284217094 s  ClockTime = 7 s

Courant Number mean: 0.1273885350319063358703886 max: 0.250000000000008881784197
Interface Courant Number mean: 5.175159235664133773298715e-05 max: 0.2500000000000026090241079
deltaT = 0.004166666666666679619268621
Time = 0.3625

PIMPLE: iteration 1
porousIsoAdvection: After conservative bounding: min(alpha) = -3.326562525388822539735435e-15, max(alpha) = 1 + 1.310063169057684717699885e-14
Phase-1 volume fraction = 0.0008260452399851873992592255  Min(alpha.water) = -3.326562525388822539735435e-15  Max(alpha.water) = 1.000000000000013100631691
ExecutionTime = 6.87999999999999989341859 s  ClockTime = 7 s

Courant Number mean: 0.1273885350319062526036618 max: 0.2500000000000087152507433
Interface Courant Number mean: 4.909766454348020231143734e-05 max: 0.2500000000000024424906542
deltaT = 0.004166666666666676149821669
Time = 0.366667

PIMPLE: iteration 1
porousIsoAdvection: After conservative bounding: min(alpha) = -3.283086425192803245717941e-15, max(alpha) = 1 + 1.088018564132653409615159e-14
Phase-1 volume fraction = 0.00082604523998518761609966  Min(alpha.water) = -3.283086425192803245717941e-15  Max(alpha.water) = 1.000000000000010880185641
ExecutionTime = 6.929999999999999715782906 s  ClockTime = 7 s

Courant Number mean: 0.1273885350319061415813593 max: 0.2500000000000085487172896
Interface Courant Number mean: 5.042462845006071242397183e-05 max: 0.2500000000000022759572005
deltaT = 0.004166666666666679619268621
Time = 0.370833

PIMPLE: iteration 1
porousIsoAdvection: After conservative bounding: min(alpha) = -3.23134424670075708286311e-15, max(alpha) = 1 + 9.992007221626408863812685e-15
Phase-1 volume fraction = 0.0008260452399851879413603117  Min(alpha.water) = -3.23134424670075708286311e-15  Max(alpha.water) = 1.000000000000009992007222
ExecutionTime = 6.980000000000000426325641 s  ClockTime = 7 s

Courant Number mean: 0.1273885350319062526036618 max: 0.2500000000000087152507433
Interface Courant Number mean: 5.04246284500607530815533e-05 max: 0.2500000000000024424906542
deltaT = 0.004166666666666683956077311
Time = 0.375

PIMPLE: iteration 1
porousIsoAdvection: After conservative bounding: min(alpha) = -3.172257330093765670255803e-15, max(alpha) = 1 + 8.659739592076221015304327e-15
Phase-1 volume fraction = 0.0008260452399851873992592255  Min(alpha.water) = -3.172257330093765670255803e-15  Max(alpha.water) = 1.000000000000008659739592
ExecutionTime = 7.030000000000000248689958 s  ClockTime = 7 s

Courant Number mean: 0.1273885350319063913815398 max: 0.2500000000000089928064995
Interface Courant Number mean: 4.909766454348026329780955e-05 max: 0.2500000000000027200464103
deltaT = 0.004166666666666679619268621
Time = 0.379167

PIMPLE: iteration 1
porousIsoAdvection: After conservative bounding: min(alpha) = -3.106710260958835878370348e-15, max(alpha) = 1 + 9.325873406851314939558506e-15
Phase-1 volume fraction = 0.000826045239985187182418791  Min(alpha.water) = -3.106710260958835878370348e-15  Max(alpha.water) = 1.000000000000009325873407
ExecutionTime = 7.089999999999999857891453 s  ClockTime = 7 s

Courant Number mean: 0.1273885350319062526036618 max: 0.2500000000000087152507433
Interface Courant Number mean: 5.307855626322186139804879e-05 max: 0.2500000000000024424906542
deltaT = 0.004166666666666674415098193
Time = 0.383333

PIMPLE: iteration 1
porousIsoAdvection: After conservative bounding: min(alpha) = -3.035547575028641799038666e-15, max(alpha) = 1 + 8.215650382226158399134874e-15
Phase-1 volume fraction = 0.000826045239985187182418791  Min(alpha.water) = -3.035547575028641799038666e-15  Max(alpha.water) = 1.000000000000008215650382
ExecutionTime = 7.139999999999999680255769 s  ClockTime = 7 s

Courant Number mean: 0.1273885350319060860702081 max: 0.2500000000000084376949872
Interface Courant Number mean: 5.440552016980233762926539e-05 max: 0.250000000000002164934898
deltaT = 0.004166666666666679619268621
Time = 0.3875

PIMPLE: iteration 1
porousIsoAdvection: After conservative bounding: min(alpha) = -2.959571218690177586845675e-15, max(alpha) = 1 + 7.327471962526033166795969e-15
Phase-1 volume fraction = 0.0008260452399851873992592255  Min(alpha.water) = -2.959571218690177586845675e-15  Max(alpha.water) = 1.000000000000007327471963
ExecutionTime = 7.190000000000000390798505 s  ClockTime = 7 s

Courant Number mean: 0.1273885350319062526036618 max: 0.2500000000000087152507433
Interface Courant Number mean: 5.307855626322186139804879e-05 max: 0.2500000000000024424906542
deltaT = 0.004166666666666689160247738
Time = 0.391667

PIMPLE: iteration 1
porousIsoAdvection: After conservative bounding: min(alpha) = -7.15682143178264651790128e-14, max(alpha) = 1 + 4.196643033083091722801328e-14
Phase-1 volume fraction = 0.0008260452399851873992592255  Min(alpha.water) = -7.15682143178264651790128e-14  Max(alpha.water) = 1.000000000000041966430331
ExecutionTime = 7.240000000000000213162821 s  ClockTime = 7 s

Courant Number mean: 0.1273885350319065579149935 max: 0.2500000000000093258734069
Interface Courant Number mean: 4.909766454348032428418175e-05 max: 0.2500000000000030531133177
deltaT = 0.004166666666666679619268621
Time = 0.395833

PIMPLE: iteration 1
porousIsoAdvection: After conservative bounding: min(alpha) = -6.275474655408797483540276e-14, max(alpha) = 1 + 3.197442310920450836420059e-14
Phase-1 volume fraction = 0.000826045239985187182418791  Min(alpha.water) = -6.275474655408797483540276e-14  Max(alpha.water) = 1.000000000000031974423109
ExecutionTime = 7.299999999999999822364316 s  ClockTime = 7 s

Courant Number mean: 0.1273885350319062526036618 max: 0.2500000000000087152507433
Interface Courant Number mean: 4.90976645434802158639645e-05 max: 0.2500000000000023314683517
deltaT = 0.004166666666666651863693005
Time = 0.4

PIMPLE: iteration 1
porousIsoAdvection: After conservative bounding: min(alpha) = -5.504127114561543348681287e-14, max(alpha) = 1 + 2.44249065417534438893199e-14
Phase-1 volume fraction = 0.000826045239985187182418791  Min(alpha.water) = -5.504127114561543348681287e-14  Max(alpha.water) = 1.000000000000024424906542
ExecutionTime = 7.809999999999999609201495 s  ClockTime = 7 s

--> FOAM Warning : 
    From void Foam::sampledSurfaces::countFields()
    in file sampledSurface/sampledSurfaces/sampledSurfaces.C at line 138
    
Cannot find registered field matching 1(alpha1)
Courant Number mean: 0.1273885350319053921808177 max: 0.2500000000000070499162064
Interface Courant Number mean: 4.644373673031881616813515e-05 max: 0.2500000000000006661338148
deltaT = 0.004166666666666665741480813
Time = 0.404167

PIMPLE: iteration 1
porousIsoAdvection: After conservative bounding: min(alpha) = -4.828647107995653029709737e-14, max(alpha) = 1 + 1.887379141862766118720174e-14
Phase-1 volume fraction = 0.0008260452399851879413603117  Min(alpha.water) = -4.828647107995653029709737e-14  Max(alpha.water) = 1.000000000000018873791419
ExecutionTime = 7.889999999999999680255769 s  ClockTime = 8 s

Courant Number mean: 0.1273885350319058362700275 max: 0.2500000000000078825834748
Interface Courant Number mean: 5.175159235664116155013412e-05 max: 0.2500000000000014988010832
deltaT = 0.004166666666666666608842551
Time = 0.408333

PIMPLE: iteration 1
porousIsoAdvection: After conservative bounding: min(alpha) = -4.237445994101407940714605e-14, max(alpha) = 1 + 1.465494392505206633359194e-14
Phase-1 volume fraction = 0.0008260452399851878329400945  Min(alpha.water) = -4.237445994101407940714605e-14  Max(alpha.water) = 1.000000000000014654943925
ExecutionTime = 7.940000000000000390798505 s  ClockTime = 8 s

Courant Number mean: 0.1273885350319058640256031 max: 0.2500000000000079380946261
Interface Courant Number mean: 5.30785562632217055439865e-05 max: 0.2500000000000015543122345
deltaT = 0.004166666666666666608842551
Time = 0.4125

PIMPLE: iteration 1
porousIsoAdvection: After conservative bounding: min(alpha) = -3.719885384423131725001175e-14, max(alpha) = 1 + 1.154631945610162802040577e-14
Phase-1 volume fraction = 0.00082604523998518761609966  Min(alpha.water) = -3.719885384423131725001175e-14  Max(alpha.water) = 1.000000000000011546319456
ExecutionTime = 8 s  ClockTime = 8 s

Courant Number mean: 0.1273885350319058640256031 max: 0.2500000000000079380946261
Interface Courant Number mean: 5.307855626322171232025007e-05 max: 0.2500000000000015543122345
deltaT = 0.004166666666666667476204289
Time = 0.416667

PIMPLE: iteration 1
porousIsoAdvection: After conservative bounding: min(alpha) = -3.267131154586930351295059e-14, max(alpha) = 1 + 9.325873406851314939558506e-15
Phase-1 volume fraction = 0.0008260452399851883750411807  Min(alpha.water) = -3.267131154586930351295059e-14  Max(alpha.water) = 1.000000000000009325873407
ExecutionTime = 8.050000000000000710542736 s  ClockTime = 8 s

Courant Number mean: 0.1273885350319058917811788 max: 0.2500000000000079936057773
Interface Courant Number mean: 5.573248407638281386048199e-05 max: 0.2500000000000016098233857
deltaT = 0.004166666666666668343566027
Time = 0.420833

PIMPLE: iteration 1
porousIsoAdvection: After conservative bounding: min(alpha) = -2.870832741138854793026359e-14, max(alpha) = 1 + 7.549516567451064474880695e-15
Phase-1 volume fraction = 0.0008260452399851881582007462  Min(alpha.water) = -2.870832741138854793026359e-14  Max(alpha.water) = 1.000000000000007549516567
ExecutionTime = 8.109999999999999431565811 s  ClockTime = 8 s

Courant Number mean: 0.1273885350319059195367544 max: 0.2500000000000080491169285
Interface Courant Number mean: 5.440552016980226986662961e-05 max: 0.2500000000000016653345369
deltaT = 0.004166666666666669210927765
Time = 0.425

PIMPLE: iteration 1
porousIsoAdvection: After conservative bounding: min(alpha) = -2.524247126839473107977588e-14, max(alpha) = 1 + 7.105427357601001858711243e-15
Phase-1 volume fraction = 0.0008260452399851878329400945  Min(alpha.water) = -2.524247126839473107977588e-14  Max(alpha.water) = 1.000000000000007105427358
ExecutionTime = 8.169999999999999928945726 s  ClockTime = 8 s

Courant Number mean: 0.12738853503190594729233 max: 0.2500000000000081046280798
Interface Courant Number mean: 5.175159235664119543145201e-05 max: 0.2500000000000008881784197
deltaT = 0.004166666666666670078289503
Time = 0.429167

PIMPLE: iteration 1
porousIsoAdvection: After conservative bounding: min(alpha) = -2.22106881428436352559048e-14, max(alpha) = 1 + 6.439293542825907934457064e-15
Phase-1 volume fraction = 0.000826045239985186748737922  Min(alpha.water) = -2.22106881428436352559048e-14  Max(alpha.water) = 1.000000000000006439293543
ExecutionTime = 8.220000000000000639488462 s  ClockTime = 8 s

Courant Number mean: 0.1273885350319059750479056 max: 0.250000000000008160139231
Interface Courant Number mean: 5.440552016980228341915676e-05 max: 0.2500000000000011102230246
deltaT = 0.004166666666666671813012979
Time = 0.433333

PIMPLE: iteration 1
porousIsoAdvection: After conservative bounding: min(alpha) = -1.955854769502520044988712e-14, max(alpha) = 1 + 5.773159728050814010202885e-15
Phase-1 volume fraction = 0.000826045239985187182418791  Min(alpha.water) = -1.955854769502520044988712e-14  Max(alpha.water) = 1.000000000000005773159728
ExecutionTime = 8.269999999999999573674359 s  ClockTime = 8 s

Courant Number mean: 0.1273885350319060028034812 max: 0.2500000000000082711615335
Interface Courant Number mean: 5.573248407638284774179988e-05 max: 0.2500000000000012212453271
deltaT = 0.004166666666666672680374717
Time = 0.4375

PIMPLE: iteration 1
porousIsoAdvection: After conservative bounding: min(alpha) = -1.723896326570327638502667e-14, max(alpha) = 1 + 5.107025913275720085948706e-15
Phase-1 volume fraction = 0.0008260452399851875076794427  Min(alpha.water) = -1.723896326570327638502667e-14  Max(alpha.water) = 1.000000000000005107025913
ExecutionTime = 8.330000000000000071054274 s  ClockTime = 8 s

Courant Number mean: 0.1273885350319060305590568 max: 0.2500000000000083266726847
Interface Courant Number mean: 5.440552016980231052421108e-05 max: 0.2500000000000012767564783
deltaT = 0.004166666666666674415098193
Time = 0.441667

PIMPLE: iteration 1
porousIsoAdvection: After conservative bounding: min(alpha) = -1.521043583162260273741421e-14, max(alpha) = 1 + 4.662936703425657469779253e-15
Phase-1 volume fraction = 0.00082604523998518761609966  Min(alpha.water) = -1.521043583162260273741421e-14  Max(alpha.water) = 1.000000000000004662936703
ExecutionTime = 8.380000000000000781597009 s  ClockTime = 8 s

Courant Number mean: 0.1273885350319060860702081 max: 0.2500000000000084376949872
Interface Courant Number mean: 5.705944798296341884070657e-05 max: 0.2500000000000013877787808
deltaT = 0.004166666666666675282459931
Time = 0.445833

PIMPLE: iteration 1
porousIsoAdvection: After conservative bounding: min(alpha) = -1.361676618146821971612916e-14, max(alpha) = 1 + 4.440892098500626161694527e-15
Phase-1 volume fraction = 0.0008260452399851878329400945  Min(alpha.water) = -1.361676618146821971612916e-14  Max(alpha.water) = 1.000000000000004440892099
ExecutionTime = 8.429999999999999715782906 s  ClockTime = 8 s

Courant Number mean: 0.1273885350319061138257837 max: 0.2500000000000084932061384
Interface Courant Number mean: 5.573248407638288839938134e-05 max: 0.250000000000001443289932
deltaT = 0.004166666666666677884545145
Time = 0.45

PIMPLE: iteration 1
porousIsoAdvection: After conservative bounding: min(alpha) = -1.304939293661216810072247e-14, max(alpha) = 1 + 4.2188474935755948536098e-15
Phase-1 volume fraction = 0.0008260452399851879413603117  Min(alpha.water) = -1.304939293661216810072247e-14  Max(alpha.water) = 1.000000000000004218847494
ExecutionTime = 8.490000000000000213162821 s  ClockTime = 8 s

Courant Number mean: 0.1273885350319061970925105 max: 0.2500000000000086597395921
Interface Courant Number mean: 5.30785562632218275167309e-05 max: 0.2500000000000016098233857
deltaT = 0.004166666666666679619268621
Time = 0.454167

PIMPLE: iteration 1
porousIsoAdvection: After conservative bounding: min(alpha) = -1.242354793669875681038737e-14, max(alpha) = 1 + 3.996802888650563545525074e-15
Phase-1 volume fraction = 0.000826045239985187182418791  Min(alpha.water) = -1.242354793669875681038737e-14  Max(alpha.water) = 1.000000000000003996802889
ExecutionTime = 8.539999999999999147348717 s  ClockTime = 8 s

Courant Number mean: 0.1273885350319062526036618 max: 0.2500000000000087152507433
Interface Courant Number mean: 5.573248407638294938575355e-05 max: 0.2500000000000018873791419
deltaT = 0.004166666666666682221353835
Time = 0.458333

PIMPLE: iteration 1
porousIsoAdvection: After conservative bounding: min(alpha) = -1.176264127608177633611299e-14, max(alpha) = 1 + 3.774758283725532237440348e-15
Phase-1 volume fraction = 0.0008260452399851875076794427  Min(alpha.water) = -1.176264127608177633611299e-14  Max(alpha.water) = 1.000000000000003774758284
ExecutionTime = 8.589999999999999857891453 s  ClockTime = 8 s

Courant Number mean: 0.1273885350319063358703886 max: 0.250000000000008881784197
Interface Courant Number mean: 5.573248407638298326707144e-05 max: 0.2500000000000020539125956
deltaT = 0.004166666666666679619268621
Time = 0.4625

PIMPLE: iteration 1
porousIsoAdvection: After conservative bounding: min(alpha) = -1.108609268398371893785039e-14, max(alpha) = 1 + 3.552713678800500929355621e-15
Phase-1 volume fraction = 0.0008260452399851873992592255  Min(alpha.water) = -1.108609268398371893785039e-14  Max(alpha.water) = 1.000000000000003552713679
ExecutionTime = 8.640000000000000568434189 s  ClockTime = 8 s

Courant Number mean: 0.1273885350319062526036618 max: 0.2500000000000087152507433
Interface Courant Number mean: 5.440552016980239861563759e-05 max: 0.250000000000003108624469
deltaT = 0.004166666666666676149821669
Time = 0.466667

PIMPLE: iteration 1
porousIsoAdvection: After conservative bounding: min(alpha) = -1.040818076000841015219318e-14, max(alpha) = 1 + 3.108624468950438313186169e-15
Phase-1 volume fraction = 0.00082604523998518761609966  Min(alpha.water) = -1.040818076000841015219318e-14  Max(alpha.water) = 1.000000000000003108624469
ExecutionTime = 8.689999999999999502620085 s  ClockTime = 8 s

Courant Number mean: 0.1273885350319061415813593 max: 0.2500000000000085487172896
Interface Courant Number mean: 5.44055201698023647343197e-05 max: 0.250000000000002886579864
deltaT = 0.004166666666666679619268621
Time = 0.470833

PIMPLE: iteration 1
porousIsoAdvection: After conservative bounding: min(alpha) = -9.739849423861317933604198e-15, max(alpha) = 1 + 2.886579864025407005101442e-15
Phase-1 volume fraction = 0.0008260452399851878329400945  Min(alpha.water) = -9.739849423861317933604198e-15  Max(alpha.water) = 1.000000000000002886579864
ExecutionTime = 8.75 s  ClockTime = 8 s

Courant Number mean: 0.1273885350319062526036618 max: 0.2500000000000087152507433
Interface Courant Number mean: 5.440552016980240539190117e-05 max: 0.250000000000003108624469
deltaT = 0.004166666666666683956077311
Time = 0.475

PIMPLE: iteration 1
porousIsoAdvection: After conservative bounding: min(alpha) = -9.089279490188264165155661e-15, max(alpha) = 1 + 2.664535259100375697016716e-15
Phase-1 volume fraction = 0.000826045239985186748737922  Min(alpha.water) = -9.089279490188264165155661e-15  Max(alpha.water) = 1.000000000000002664535259
ExecutionTime = 8.800000000000000710542736 s  ClockTime = 8 s

Courant Number mean: 0.1273885350319063913815398 max: 0.2500000000000089928064995
Interface Courant Number mean: 5.573248407638301037212575e-05 max: 0.2500000000000033306690739
deltaT = 0.004166666666666679619268621
Time = 0.479167

PIMPLE: iteration 1
porousIsoAdvection: After conservative bounding: min(alpha) = -8.462498023175054025930902e-15, max(alpha) = 1 + 2.44249065417534438893199e-15
Phase-1 volume fraction = 0.000826045239985187182418791  Min(alpha.water) = -8.462498023175054025930902e-15  Max(alpha.water) = 1.000000000000002442490654
ExecutionTime = 8.849999999999999644728632 s  ClockTime = 9 s

Courant Number mean: 0.1273885350319062526036618 max: 0.2500000000000087152507433
Interface Courant Number mean: 5.971337579612458136731068e-05 max: 0.250000000000003108624469
deltaT = 0.004166666666666674415098193
Time = 0.483333

PIMPLE: iteration 1
porousIsoAdvection: After conservative bounding: min(alpha) = -7.863736459186408411270489e-15, max(alpha) = 1 + 2.44249065417534438893199e-15
Phase-1 volume fraction = 0.00082604523998518761609966  Min(alpha.water) = -7.863736459186408411270489e-15  Max(alpha.water) = 1.000000000000002442490654
ExecutionTime = 8.900000000000000355271368 s  ClockTime = 9 s

Courant Number mean: 0.1273885350319060860702081 max: 0.2500000000000084376949872
Interface Courant Number mean: 5.97133757961245136046749e-05 max: 0.2500000000000027755575616
deltaT = 0.004166666666666679619268621
Time = 0.4875

PIMPLE: iteration 1
porousIsoAdvection: After conservative bounding: min(alpha) = -7.295774889538643900382266e-15, max(alpha) = 1 + 2.44249065417534438893199e-15
Phase-1 volume fraction = 0.0008260452399851878329400945  Min(alpha.water) = -7.295774889538643900382266e-15  Max(alpha.water) = 1.000000000000002442490654
ExecutionTime = 8.960000000000000852651283 s  ClockTime = 9 s

Courant Number mean: 0.1273885350319062526036618 max: 0.2500000000000087152507433
Interface Courant Number mean: 6.104033970270513213742664e-05 max: 0.250000000000003108624469
deltaT = 0.004166666666666689160247738
Time = 0.491667

PIMPLE: iteration 1
porousIsoAdvection: After conservative bounding: min(alpha) = -3.428276181457116479052382e-13, max(alpha) = 1 + 7.327471962526033166795969e-15
Phase-1 volume fraction = 0.00082604523998518761609966  Min(alpha.water) = -3.428276181457116479052382e-13  Max(alpha.water) = 1.000000000000007327471963
ExecutionTime = 9.009999999999999786837179 s  ClockTime = 9 s

Courant Number mean: 0.1273885350319065579149935 max: 0.2500000000000093258734069
Interface Courant Number mean: 5.440552016980251381211842e-05 max: 0.2500000000000023314683517
deltaT = 0.004166666666666679619268621
Time = 0.495833

PIMPLE: iteration 1
porousIsoAdvection: After conservative bounding: min(alpha) = -2.575507699232621843317068e-13, max(alpha) = 1 + 5.773159728050814010202885e-15
Phase-1 volume fraction = 0.0008260452399851881582007462  Min(alpha.water) = -2.575507699232621843317068e-13  Max(alpha.water) = 1.000000000000005773159728
ExecutionTime = 9.060000000000000497379915 s  ClockTime = 9 s

Courant Number mean: 0.1273885350319062526036618 max: 0.2500000000000087152507433
Interface Courant Number mean: 5.175159235664130385166926e-05 max: 0.2500000000000017763568394
deltaT = 0.004166666666666651863693005
Time = 0.5

PIMPLE: iteration 1
porousIsoAdvection: After conservative bounding: min(alpha) = -1.936057143999900127654644e-13, max(alpha) = 1 + 5.329070518200751394033432e-15
Phase-1 volume fraction = 0.0008260452399851878329400945  Min(alpha.water) = -1.936057143999900127654644e-13  Max(alpha.water) = 1.000000000000005329070518
ExecutionTime = 9.560000000000000497379915 s  ClockTime = 9 s

--> FOAM Warning : 
    From void Foam::sampledSurfaces::countFields()
    in file sampledSurface/sampledSurfaces/sampledSurfaces.C at line 138
    
Cannot find registered field matching 1(alpha1)
Courant Number mean: 0.1273885350319053921808177 max: 0.2500000000000070499162064
Interface Courant Number mean: 5.17515923566409514859632e-05 max: 0.2500000000000001110223025
deltaT = 0.004166666666666670078289503
Time = 0.504167

PIMPLE: iteration 1
porousIsoAdvection: After conservative bounding: min(alpha) = -1.537224249975976842090213e-13, max(alpha) = 1 + 4.884981308350688777863979e-15
Phase-1 volume fraction = 0.0008260452399851881582007462  Min(alpha.water) = -1.537224249975976842090213e-13  Max(alpha.water) = 1.000000000000004884981308
ExecutionTime = 9.650000000000000355271368 s  ClockTime = 9 s

Courant Number mean: 0.1273885350319059750479056 max: 0.250000000000008160139231
Interface Courant Number mean: 5.838641188954388829565958e-05 max: 0.2500000000000012212453271
deltaT = 0.004166666666666670945651241
Time = 0.508333

PIMPLE: iteration 1
porousIsoAdvection: After conservative bounding: min(alpha) = -1.221499353938199700707809e-13, max(alpha) = 1 + 4.2188474935755948536098e-15
Phase-1 volume fraction = 0.00082604523998518761609966  Min(alpha.water) = -1.221499353938199700707809e-13  Max(alpha.water) = 1.000000000000004218847494
ExecutionTime = 9.699999999999999289457264 s  ClockTime = 9 s

Courant Number mean: 0.1273885350319060028034812 max: 0.2500000000000082156503822
Interface Courant Number mean: 5.971337579612443906577554e-05 max: 0.2500000000000012767564783
deltaT = 0.004166666666666671813012979
Time = 0.5125

PIMPLE: iteration 1
porousIsoAdvection: After conservative bounding: min(alpha) = -9.715684954215289163882319e-14, max(alpha) = 1 + 3.774758283725532237440348e-15
Phase-1 volume fraction = 0.00082604523998518761609966  Min(alpha.water) = -9.715684954215289163882319e-14  Max(alpha.water) = 1.000000000000003774758284
ExecutionTime = 9.75 s  ClockTime = 9 s

Courant Number mean: 0.1273885350319060028034812 max: 0.2500000000000082711615335
Interface Courant Number mean: 5.971337579612444584203912e-05 max: 0.2500000000000018873791419
deltaT = 0.004166666666666672680374717
Time = 0.516667

PIMPLE: iteration 1
porousIsoAdvection: After conservative bounding: min(alpha) = -8.546220833461837776214005e-14, max(alpha) = 1 + 3.330669073875469621270895e-15
Phase-1 volume fraction = 0.0008260452399851882666209635  Min(alpha.water) = -8.546220833461837776214005e-14  Max(alpha.water) = 1.000000000000003330669074
ExecutionTime = 9.800000000000000710542736 s  ClockTime = 9 s

Courant Number mean: 0.1273885350319060305590568 max: 0.2500000000000083266726847
Interface Courant Number mean: 5.83864118895439154007139e-05 max: 0.2500000000000019428902931
deltaT = 0.004166666666666674415098193
Time = 0.520833

PIMPLE: iteration 1
[...]

Courant Number mean: 0.1273885350319046705358517 max: 0.2500000000000056066262744
Interface Courant Number mean: 4.644373673031859932770066e-05 max: 0.1250000000000015265566589
deltaT = 0.004166666666666651863693005
Time = 2.37083

PIMPLE: iteration 1
porousIsoAdvection: After conservative bounding: min(alpha) = -5.443405535641333669339899e-20, max(alpha) = 1 + 2.575717417130363173782825e-13
Phase-1 volume fraction = 0.000826045239985185881376184  Min(alpha.water) = -5.443405535641333669339899e-20  Max(alpha.water) = 1.000000000000257571741713
ExecutionTime = 43.93999999999999772626325 s  ClockTime = 44 s

Courant Number mean: 0.1273885350319053921808177 max: 0.2500000000000070499162064
Interface Courant Number mean: 4.511677282373834671318213e-05 max: 0.1250000000000022759572005
deltaT = 0.004166666666666683956077311
Time = 2.375

PIMPLE: iteration 1
porousIsoAdvection: After conservative bounding: min(alpha) = -5.255557487368800043370874e-20, max(alpha) = 1 + 1.931788062847772380337119e-13
Phase-1 volume fraction = 0.000826045239985186315057053  Min(alpha.water) = -5.255557487368800043370874e-20  Max(alpha.water) = 1.000000000000193178806285
ExecutionTime = 44 s  ClockTime = 44 s

Courant Number mean: 0.1273885350319063913815398 max: 0.2500000000000089928064995
Interface Courant Number mean: 4.777070063689976673780221e-05 max: 0.1250000000000032196467714
deltaT = 0.004166666666666651863693005
Time = 2.37917

PIMPLE: iteration 1
porousIsoAdvection: After conservative bounding: min(alpha) = -5.06564663540125510924993e-20, max(alpha) = 1 + 1.527666881884215399622917e-13
Phase-1 volume fraction = 0.000826045239985186748737922  Min(alpha.water) = -5.06564663540125510924993e-20  Max(alpha.water) = 1.000000000000152766688188
ExecutionTime = 44.04999999999999715782906 s  ClockTime = 44 s

Courant Number mean: 0.1273885350319053921808177 max: 0.2500000000000070499162064
Interface Courant Number mean: 4.7770700636899400819569e-05 max: 0.1250000000000022759572005
deltaT = 0.004166666666666607628244368
Time = 2.38333

PIMPLE: iteration 1
porousIsoAdvection: After conservative bounding: min(alpha) = -4.87507871153324523357042e-20, max(alpha) = 1 + 1.210143096841420629061759e-13
Phase-1 volume fraction = 0.0008260452399851865318974875  Min(alpha.water) = -4.87507871153324523357042e-20  Max(alpha.water) = 1.000000000000121014309684
ExecutionTime = 44.10999999999999943156581 s  ClockTime = 44 s

Courant Number mean: 0.1273885350319040599131881 max: 0.2500000000000044408920985
Interface Courant Number mean: 4.777070063689889259980065e-05 max: 0.1250000000000009436895709
deltaT = 0.004166666666666651863693005
Time = 2.3875

PIMPLE: iteration 1
porousIsoAdvection: After conservative bounding: min(alpha) = -4.685047049308690647684157e-20, max(alpha) = 1 + 1.059152765492399339564145e-13
Phase-1 volume fraction = 0.0008260452399851855561155323  Min(alpha.water) = -4.685047049308690647684157e-20  Max(alpha.water) = 1.000000000000105915276549
ExecutionTime = 44.17000000000000170530257 s  ClockTime = 44 s

Courant Number mean: 0.1273885350319053921808177 max: 0.2500000000000070499162064
Interface Courant Number mean: 4.644373673031885004945304e-05 max: 0.1250000000000022759572005
deltaT = 0.004166666666666725589440734
Time = 2.39167

PIMPLE: iteration 1
porousIsoAdvection: After conservative bounding: min(alpha) = -1.569115208136909945980019e-15, max(alpha) = 1 + 9.281464485866308677941561e-14
Phase-1 volume fraction = 0.000826045239985185447695315  Min(alpha.water) = -1.569115208136909945980019e-15  Max(alpha.water) = 1.000000000000092814644859
ExecutionTime = 44.21999999999999886313162 s  ClockTime = 44 s

Courant Number mean: 0.1273885350319076681380182 max: 0.2500000000000114908083049
Interface Courant Number mean: 4.113588110399743979182785e-05 max: 0.1250000000000044686476741
deltaT = 0.004166666666666651863693005
Time = 2.39583

PIMPLE: iteration 1
porousIsoAdvection: After conservative bounding: min(alpha) = -4.469159421273484261595656e-20, max(alpha) = 1 + 8.126832540256145875900984e-14
Phase-1 volume fraction = 0.0008260452399851849055942288  Min(alpha.water) = -4.469159421273484261595656e-20  Max(alpha.water) = 1.000000000000081268325403
ExecutionTime = 44.28000000000000113686838 s  ClockTime = 44 s

Courant Number mean: 0.1273885350319053921808177 max: 0.2500000000000070499162064
Interface Courant Number mean: 3.980891719741619106656336e-05 max: 0.1250000000000022759572005
deltaT = 0.00416666666666642981908808
Time = 2.4

PIMPLE: iteration 1
porousIsoAdvection: After conservative bounding: min(alpha) = -4.426070633246160983369661e-20, max(alpha) = 1 + 7.127631818093504989519715e-14
Phase-1 volume fraction = 0.0008260452399851855561155323  Min(alpha.water) = -4.426070633246160983369661e-20  Max(alpha.water) = 1.000000000000071276318181
ExecutionTime = 44.81000000000000227373675 s  ClockTime = 45 s

--> FOAM Warning : 
    From void Foam::sampledSurfaces::countFields()
    in file sampledSurface/sampledSurfaces/sampledSurfaces.C at line 138
    
Cannot find registered field matching 1(alpha1)
Courant Number mean: 0.1273885350318986198203675 max: 0.2499999999999937549954865
Interface Courant Number mean: 4.113588110399455310354361e-05 max: 0.1249999999999956007412649
deltaT = 0.004166666666666651863693005
Time = 2.40417

PIMPLE: iteration 1
porousIsoAdvection: After conservative bounding: min(alpha) = -4.389887858355937304577102e-20, max(alpha) = 1 + 6.23945339839337975718081e-14
Phase-1 volume fraction = 0.0008260452399851851224346633  Min(alpha.water) = -4.389887858355937304577102e-20  Max(alpha.water) = 1.000000000000062394533984
ExecutionTime = 44.89999999999999857891453 s  ClockTime = 45 s

Courant Number mean: 0.1273885350319053921808177 max: 0.2500000000000070499162064
Interface Courant Number mean: 4.378980891715781627185691e-05 max: 0.1250000000000022759572005
deltaT = 0.004166666666666661404672123
Time = 2.40833

PIMPLE: iteration 1
porousIsoAdvection: After conservative bounding: min(alpha) = -4.349246365071739173599038e-20, max(alpha) = 1 + 5.462297281155770178884268e-14
Phase-1 volume fraction = 0.0008260452399851853392750978  Min(alpha.water) = -4.349246365071739173599038e-20  Max(alpha.water) = 1.000000000000054622972812
ExecutionTime = 44.96000000000000085265128 s  ClockTime = 45 s

Courant Number mean: 0.1273885350319056974921494 max: 0.2500000000000076605388699
Interface Courant Number mean: 4.511677282373843480460865e-05 max: 0.1250000000000025535129566
deltaT = 0.004166666666666651863693005
Time = 2.4125

PIMPLE: iteration 1
porousIsoAdvection: After conservative bounding: min(alpha) = -4.292048403706371742990127e-20, max(alpha) = 1 + 4.773959005888173123821616e-14
Phase-1 volume fraction = 0.000826045239985186315057053  Min(alpha.water) = -4.292048403706371742990127e-20  Max(alpha.water) = 1.000000000000047739590059
ExecutionTime = 45.00999999999999801048034 s  ClockTime = 45 s

Courant Number mean: 0.1273885350319053921808177 max: 0.2500000000000070499162064
Interface Courant Number mean: 4.511677282373834671318213e-05 max: 0.1250000000000022759572005
deltaT = 0.004166666666666641455352149
Time = 2.41667

PIMPLE: iteration 1
porousIsoAdvection: After conservative bounding: min(alpha) = -4.220917520943760471726639e-20, max(alpha) = 1 + 4.174438572590588591992855e-14
Phase-1 volume fraction = 0.0008260452399851857729559668  Min(alpha.water) = -4.220917520943760471726639e-20  Max(alpha.water) = 1.000000000000041744385726
ExecutionTime = 45.07000000000000028421709 s  ClockTime = 45 s

Courant Number mean: 0.1273885350319050868694859 max: 0.2500000000000064392935428
Interface Courant Number mean: 4.644373673031876195802653e-05 max: 0.1250000000000017486012638
deltaT = 0.004166666666666651863693005
Time = 2.42083

PIMPLE: iteration 1
porousIsoAdvection: After conservative bounding: min(alpha) = -4.138172153458800265444047e-20, max(alpha) = 1 + 7.260858581048523774370551e-14
Phase-1 volume fraction = 0.0008260452399851857729559668  Min(alpha.water) = -4.138172153458800265444047e-20  Max(alpha.water) = 1.00000000000007260858581
ExecutionTime = 45.13000000000000255795385 s  ClockTime = 45 s

Courant Number mean: 0.1273885350319053921808177 max: 0.2500000000000070499162064
Interface Courant Number mean: 4.644373673031887715450736e-05 max: 0.1250000000000020539125956
deltaT = 0.004166666666666663139395599
Time = 2.425

PIMPLE: iteration 1
porousIsoAdvection: After conservative bounding: min(alpha) = -4.06370721454985824645237e-20, max(alpha) = 1 + 6.350475700855895411223173e-14
Phase-1 volume fraction = 0.000826045239985185447695315  Min(alpha.water) = -4.06370721454985824645237e-20  Max(alpha.water) = 1.000000000000063504757009
ExecutionTime = 45.18999999999999772626325 s  ClockTime = 45 s

Courant Number mean: 0.1273885350319057530033007 max: 0.2500000000000077715611724
Interface Courant Number mean: 4.378980891715790436328343e-05 max: 0.1250000000000023869795029
deltaT = 0.004166666666666651863693005
Time = 2.42917

PIMPLE: iteration 1
porousIsoAdvection: After conservative bounding: min(alpha) = -3.990426683040361000539062e-20, max(alpha) = 1 + 5.551115123125782702118158e-14
Phase-1 volume fraction = 0.000826045239985185447695315  Min(alpha.water) = -3.990426683040361000539062e-20  Max(alpha.water) = 1.000000000000055511151231
ExecutionTime = 45.24000000000000198951966 s  ClockTime = 45 s

Courant Number mean: 0.1273885350319053921808177 max: 0.2500000000000070499162064
Interface Courant Number mean: 4.378980891715780271932976e-05 max: 0.1250000000000020539125956
deltaT = 0.004166666666666638853266935
Time = 2.43333

PIMPLE: iteration 1
porousIsoAdvection: After conservative bounding: min(alpha) = -3.906576199956578804936955e-20, max(alpha) = 1 + 4.862776847858185647055507e-14
Phase-1 volume fraction = 0.000826045239985185881376184  Min(alpha.water) = -3.906576199956578804936955e-20  Max(alpha.water) = 1.000000000000048627768479
ExecutionTime = 45.29999999999999715782906 s  ClockTime = 45 s

Courant Number mean: 0.1273885350319050036027591 max: 0.2500000000000062727600891
Interface Courant Number mean: 4.644373673031875518176295e-05 max: 0.1250000000000016653345369
deltaT = 0.004166666666666651863693005
Time = 2.4375

PIMPLE: iteration 1
porousIsoAdvection: After conservative bounding: min(alpha) = -3.814111142076839288631309e-20, max(alpha) = 1 + 4.263256414560601115226746e-14
Phase-1 volume fraction = 0.000826045239985186315057053  Min(alpha.water) = -3.814111142076839288631309e-20  Max(alpha.water) = 1.000000000000042632564146
ExecutionTime = 45.35999999999999943156581 s  ClockTime = 45 s

Courant Number mean: 0.1273885350319053921808177 max: 0.2500000000000070499162064
Interface Courant Number mean: 4.644373673031885004945304e-05 max: 0.1250000000000029976021665
deltaT = 0.004166666666666666608842551
Time = 2.44167

PIMPLE: iteration 1
porousIsoAdvection: After conservative bounding: min(alpha) = -3.714747002706292018589324e-20, max(alpha) = 1 + 3.730349362740525975823402e-14
Phase-1 volume fraction = 0.000826045239985186315057053  Min(alpha.water) = -3.714747002706292018589324e-20  Max(alpha.water) = 1.000000000000037303493627
ExecutionTime = 45.42000000000000170530257 s  ClockTime = 45 s

Courant Number mean: 0.1273885350319058640256031 max: 0.2500000000000079380946261
Interface Courant Number mean: 4.777070063689956344989487e-05 max: 0.1250000000000034416913763
deltaT = 0.004166666666666651863693005
Time = 2.44583

PIMPLE: iteration 1
porousIsoAdvection: After conservative bounding: min(alpha) = -3.619474751020352995461527e-20, max(alpha) = 1 + 3.264055692397960228845477e-14
Phase-1 volume fraction = 0.0008260452399851857729559668  Min(alpha.water) = -3.619474751020352995461527e-20  Max(alpha.water) = 1.000000000000032640556924
ExecutionTime = 45.46999999999999886313162 s  ClockTime = 45 s

Courant Number mean: 0.1273885350319053921808177 max: 0.2500000000000070499162064
Interface Courant Number mean: 4.777070063689936016198753e-05 max: 0.1250000000000029976021665
deltaT = 0.004166666666666634516458245
Time = 2.45

PIMPLE: iteration 1
porousIsoAdvection: After conservative bounding: min(alpha) = -3.53319109925952396465194e-20, max(alpha) = 1 + 2.86437540353290387429297e-14
Phase-1 volume fraction = 0.0008260452399851857729559668  Min(alpha.water) = -3.53319109925952396465194e-20  Max(alpha.water) = 1.000000000000028643754035
ExecutionTime = 45.53000000000000113686838 s  ClockTime = 45 s

Courant Number mean: 0.127388535031904864824881 max: 0.2500000000000060507154842
Interface Courant Number mean: 4.511677282373809599142975e-05 max: 0.1250000000000024980018054
deltaT = 0.004166666666666651863693005
Time = 2.45417

PIMPLE: iteration 1
porousIsoAdvection: After conservative bounding: min(alpha) = -3.440274585085915430947951e-20, max(alpha) = 1 + 2.509104035652853781357408e-14
Phase-1 volume fraction = 0.0008260452399851857729559668  Min(alpha.water) = -3.440274585085915430947951e-20  Max(alpha.water) = 1.000000000000025091040357
ExecutionTime = 45.59000000000000341060513 s  ClockTime = 45 s

Courant Number mean: 0.1273885350319053921808177 max: 0.2500000000000070499162064
Interface Courant Number mean: 4.644373673031882972066231e-05 max: 0.1250000000000029976021665
deltaT = 0.004166666666666671813012979
Time = 2.45833

PIMPLE: iteration 1
porousIsoAdvection: After conservative bounding: min(alpha) = -3.342192952578693545507024e-20, max(alpha) = 1 + 2.198241588757809950038791e-14
Phase-1 volume fraction = 0.0008260452399851862066368358  Min(alpha.water) = -3.342192952578693545507024e-20  Max(alpha.water) = 1.000000000000021982415888
ExecutionTime = 45.64000000000000056843419 s  ClockTime = 45 s

Courant Number mean: 0.1273885350319060028034812 max: 0.2500000000000082711615335
Interface Courant Number mean: 4.511677282373851611977159e-05 max: 0.12500000000000360822483
deltaT = 0.004166666666666651863693005
Time = 2.4625

PIMPLE: iteration 1
porousIsoAdvection: After conservative bounding: min(alpha) = -3.2402245973071166634587e-20, max(alpha) = 1 + 1.909583602355269249528646e-14
Phase-1 volume fraction = 0.0008260452399851860982166185  Min(alpha.water) = -3.2402245973071166634587e-20  Max(alpha.water) = 1.000000000000019095836024
ExecutionTime = 45.70000000000000284217094 s  ClockTime = 45 s

Courant Number mean: 0.1273885350319053921808177 max: 0.2500000000000070499162064
Interface Courant Number mean: 4.777070063689937371451469e-05 max: 0.1250000000000029976021665
deltaT = 0.004166666666666627577564341
Time = 2.46667

PIMPLE: iteration 1
porousIsoAdvection: After conservative bounding: min(alpha) = -3.136345862351701936373955e-20, max(alpha) = 1 + 1.665334536937734810635448e-14
Phase-1 volume fraction = 0.000826045239985185014014446  Min(alpha.water) = -3.136345862351701936373955e-20  Max(alpha.water) = 1.000000000000016653345369
ExecutionTime = 45.75999999999999801048034 s  ClockTime = 45 s

Courant Number mean: 0.1273885350319046705358517 max: 0.2500000000000056066262744
Interface Courant Number mean: 4.644373673031857222264634e-05 max: 0.1250000000000022759572005
deltaT = 0.004166666666666651863693005
Time = 2.47083

PIMPLE: iteration 1
porousIsoAdvection: After conservative bounding: min(alpha) = -3.04884915521118218999396e-20, max(alpha) = 1 + 1.465494392505206633359194e-14
Phase-1 volume fraction = 0.0008260452399851857729559668  Min(alpha.water) = -3.04884915521118218999396e-20  Max(alpha.water) = 1.000000000000014654943925
ExecutionTime = 45.82000000000000028421709 s  ClockTime = 46 s

Courant Number mean: 0.1273885350319053921808177 max: 0.2500000000000070499162064
Interface Courant Number mean: 4.511677282373828572680993e-05 max: 0.1250000000000029976021665
deltaT = 0.004166666666666683956077311
Time = 2.475

PIMPLE: iteration 1
porousIsoAdvection: After conservative bounding: min(alpha) = -2.957272984807945076205399e-20, max(alpha) = 1 + 1.287858708565181586891413e-14
Phase-1 volume fraction = 0.0008260452399851865318974875  Min(alpha.water) = -2.957272984807945076205399e-20  Max(alpha.water) = 1.000000000000012878587086
ExecutionTime = 45.88000000000000255795385 s  ClockTime = 46 s

Courant Number mean: 0.1273885350319063913815398 max: 0.2500000000000089928064995
Interface Courant Number mean: 4.777070063689974640901148e-05 max: 0.125000000000003969047313
deltaT = 0.004166666666666651863693005
Time = 2.47917

PIMPLE: iteration 1
porousIsoAdvection: After conservative bounding: min(alpha) = -2.862727250723209708740054e-20, max(alpha) = 1 + 1.132427485117659671232104e-14
Phase-1 volume fraction = 0.000826045239985185447695315  Min(alpha.water) = -2.862727250723209708740054e-20  Max(alpha.water) = 1.000000000000011324274851
ExecutionTime = 45.93999999999999772626325 s  ClockTime = 46 s

Courant Number mean: 0.1273885350319053921808177 max: 0.2500000000000070499162064
Interface Courant Number mean: 4.777070063689938049077827e-05 max: 0.1250000000000029976021665
deltaT = 0.004166666666666607628244368
Time = 2.48333

PIMPLE: iteration 1
porousIsoAdvection: After conservative bounding: min(alpha) = -2.766171899116114364716862e-20, max(alpha) = 1 + 1.043609643147647147998214e-14
Phase-1 volume fraction = 0.0008260452399851853392750978  Min(alpha.water) = -2.766171899116114364716862e-20  Max(alpha.water) = 1.000000000000010436096431
ExecutionTime = 46.00999999999999801048034 s  ClockTime = 46 s

Courant Number mean: 0.1273885350319040599131881 max: 0.2500000000000044408920985
Interface Courant Number mean: 4.777070063689889259980065e-05 max: 0.1250000000000016653345369
deltaT = 0.004166666666666651863693005
Time = 2.4875

PIMPLE: iteration 1
porousIsoAdvection: After conservative bounding: min(alpha) = -2.668434369633719238265388e-20, max(alpha) = 1 + 9.992007221626408863812685e-15
Phase-1 volume fraction = 0.0008260452399851844719133598  Min(alpha.water) = -2.668434369633719238265388e-20  Max(alpha.water) = 1.000000000000009992007222
ExecutionTime = 46.07000000000000028421709 s  ClockTime = 46 s

Courant Number mean: 0.1273885350319053921808177 max: 0.2500000000000070499162064
Interface Courant Number mean: 4.644373673031887037824378e-05 max: 0.1250000000000029976021665
deltaT = 0.004166666666666725589440734
Time = 2.49167

PIMPLE: iteration 1
porousIsoAdvection: After conservative bounding: min(alpha) = -1.22781414665005507997304e-14, max(alpha) = 1 + 9.547918011776346247643232e-15
Phase-1 volume fraction = 0.0008260452399851839298122735  Min(alpha.water) = -1.22781414665005507997304e-14  Max(alpha.water) = 1.000000000000009547918012
ExecutionTime = 46.14000000000000056843419 s  ClockTime = 46 s

Courant Number mean: 0.1273885350319076681380182 max: 0.2500000000000114908083049
Interface Courant Number mean: 4.113588110399743301556427e-05 max: 0.1250000000000038857805862
deltaT = 0.004166666666666651863693005
Time = 2.49583

PIMPLE: iteration 1
porousIsoAdvection: After conservative bounding: min(alpha) = -4.722991054776118575808005e-15, max(alpha) = 1 + 9.10382880192628363147378e-15
Phase-1 volume fraction = 0.0008260452399851829540303183  Min(alpha.water) = -4.722991054776118575808005e-15  Max(alpha.water) = 1.000000000000009103828802
ExecutionTime = 46.20000000000000284217094 s  ClockTime = 46 s

Courant Number mean: 0.1273885350319053921808177 max: 0.2500000000000070499162064
Interface Courant Number mean: 3.848195329083561996765667e-05 max: 0.1250000000000016930901126
deltaT = 0.00416666666666642981908808
Time = 2.5

PIMPLE: iteration 1
porousIsoAdvection: After conservative bounding: min(alpha) = -2.409110288171716617537953e-20, max(alpha) = 1 + 8.659739592076221015304327e-15
Phase-1 volume fraction = 0.000826045239985184580333577  Min(alpha.water) = -2.409110288171716617537953e-20  Max(alpha.water) = 1.000000000000008659739592
ExecutionTime = 46.75 s  ClockTime = 46 s

--> FOAM Warning : 
    From void Foam::sampledSurfaces::countFields()
    in file sampledSurface/sampledSurfaces/sampledSurfaces.C at line 138
    
Cannot find registered field matching 1(alpha1)
End

