/*---------------------------------------------------------------------------*\
| =========                 |                                                 |
| \\      /  F ield         | OpenFOAM: The Open Source CFD Toolbox           |
|  \\    /   O peration     | Version:  v2012                                 |
|   \\  /    A nd           | Website:  www.openfoam.com                      |
|    \\/     M anipulation  |                                                 |
\*---------------------------------------------------------------------------*/
Build  : _7bdb509494-20201222 OPENFOAM=2012
Arch   : "LSB;label=32;scalar=64"
Exec   : porousInterFoam
Date   : Sep 08 2022
Time   : 16:08:48
Host   : nb-dk1082448
PID    : 4403
I/O    : uncollated
Case   : /home/missios/OpenFOAM/missios-v2006/src/isoAdvectorDevelopment/porosityDevelopment/OFJ_resubmission/porosity/tutorials/discInConstantPorousFlow_test/RESULTS_porousInterFoam_Co_0.25
nProcs : 1
trapFpe: Floating point exception trapping enabled (FOAM_SIGFPE).
fileModificationChecking : Monitoring run-time modified files using timeStampMaster (fileModificationSkew 5, maxFileModificationPolls 20)
allowSystemOperations : Allowing user-supplied system call operations

// * * * * * * * * * * * * * * * * * * * * * * * * * * * * * * * * * * * * * //
Create time

Create mesh for time = 0


PIMPLE: Operating solver in PISO mode

Reading field p_rgh

Reading field U

Reading/calculating face flux field phi

Reading transportProperties

Selecting incompressible transport model Newtonian
Selecting incompressible transport model Newtonian
Selecting turbulence model type laminar
Selecting laminar stress model Stokes

Reading g

Reading hRef
Calculating field g.h

No MRF models present

No finite volume options present
time step continuity errors : sum local = 3.855910816332278612232598e-16, global = -5.648512618281840809118033e-17, cumulative = -5.648512618281840809118033e-17
Courant Number mean: 3.05732484076574095865908 max: 6.000000000000191846538655
--> FOAM Warning : 
    From void Foam::timeControl::read(const Foam::dictionary&)
    in file db/functionObjects/timeControl/timeControl.C at line 127
    Reading "/home/missios/OpenFOAM/missios-v2006/src/isoAdvectorDevelopment/porosityDevelopment/OFJ_resubmission/porosity/tutorials/discInConstantPorousFlow_test/RESULTS_porousInterFoam_Co_0.25/system/controlDict.functions.freeSurfaceFunc" at line 60 to 103
    Using deprecated 'outputControl'
    Please use 'writeControl' with 'writeInterval'
    This outputControl is deemed to be 54 months old.

--> FOAM IOWarning :
    Found [v1612] 'functionObjectLibs' entry instead of 'libs' in dictionary "/home/missios/OpenFOAM/missios-v2006/src/isoAdvectorDevelopment/porosityDevelopment/OFJ_resubmission/porosity/tutorials/discInConstantPorousFlow_test/RESULTS_porousInterFoam_Co_0.25/system/controlDict.functions.freeSurfaceFunc" 

    This keyword is deemed to be 48 months old.

Sampled surface:
    alpha_050 -> raw
    alpha_001 -> raw
    alpha_099 -> raw


Starting time loop

Courant Number mean: 3.05732484076574095865908 max: 6.000000000000191846538655
Interface Courant Number mean: 0.00089171974522212469650706 max: 3.000000000000015987211555
deltaT = 0.008333333333333333217685102
Time = 0.00833333

PIMPLE: iteration 1
MULES: Solving for alpha.water
Phase-1 volume fraction = 0.0008260452399851883750411807  Min(alpha.water) = 0  Max(alpha.water) = 1.000000000000000222044605
ExecutionTime = 0.5899999999999999689137553 s  ClockTime = 1 s

Courant Number mean: 0.2547770700638117280512063 max: 0.5000000000000158761892521
Interface Courant Number mean: 0.0001353503184712153654001981 max: 0.2500000000000013322676296
deltaT = 0.008333333333333333217685102
Time = 0.0166667

PIMPLE: iteration 1
MULES: Solving for alpha.water
Phase-1 volume fraction = 0.0008260452399851882666209635  Min(alpha.water) = 0  Max(alpha.water) = 1.000000000000000222044605
ExecutionTime = 0.6700000000000000399680289 s  ClockTime = 1 s

Courant Number mean: 0.2547770700638117280512063 max: 0.5000000000000158761892521
Interface Courant Number mean: 0.0001459660297238597173510172 max: 0.2500000000000013322676296
deltaT = 0.008333333333333334952408578
Time = 0.025

PIMPLE: iteration 1
MULES: Solving for alpha.water
Phase-1 volume fraction = 0.0008260452399851882666209635  Min(alpha.water) = 0  Max(alpha.water) = 1.000000000000000222044605
ExecutionTime = 0.7299999999999999822364316 s  ClockTime = 1 s

Courant Number mean: 0.2547770700638117835623575 max: 0.5000000000000159872115546
Interface Courant Number mean: 0.0001592356687896651979471224 max: 0.2500000000000013877787808
deltaT = 0.008333333333333334952408578
Time = 0.0333333

PIMPLE: iteration 1
MULES: Solving for alpha.water
Phase-1 volume fraction = 0.0008260452399851890255624842  Min(alpha.water) = 0  Max(alpha.water) = 1.000000000000000222044605
ExecutionTime = 0.7900000000000000355271368 s  ClockTime = 1 s

Courant Number mean: 0.2547770700638117835623575 max: 0.5000000000000159872115546
Interface Courant Number mean: 0.0001645435244159873468174776 max: 0.2500000000000013877787808
deltaT = 0.008333333333333333217685102
Time = 0.0416667

PIMPLE: iteration 1
MULES: Solving for alpha.water
Phase-1 volume fraction = 0.0008260452399851890255624842  Min(alpha.water) = 0  Max(alpha.water) = 1.000000000000000222044605
ExecutionTime = 0.8499999999999999777955395 s  ClockTime = 1 s

Courant Number mean: 0.2547770700638117280512063 max: 0.5000000000000158761892521
Interface Courant Number mean: 0.0001671974522291484212526552 max: 0.2500000000000013322676296
deltaT = 0.008333333333333333217685102
Time = 0.05

PIMPLE: iteration 1
MULES: Solving for alpha.water
Phase-1 volume fraction = 0.0008260452399851885918816152  Min(alpha.water) = 0  Max(alpha.water) = 1.000000000000000222044605
ExecutionTime = 0.9100000000000000310862447 s  ClockTime = 1 s

Courant Number mean: 0.2547770700638117280512063 max: 0.5000000000000158761892521
Interface Courant Number mean: 0.0001698513800423094956878328 max: 0.2500000000000013322676296
deltaT = 0.008333333333333333217685102
Time = 0.0583333

PIMPLE: iteration 1
MULES: Solving for alpha.water
Phase-1 volume fraction = 0.0008260452399851881582007462  Min(alpha.water) = 0  Max(alpha.water) = 1.000000000000000222044605
ExecutionTime = 0.9699999999999999733546474 s  ClockTime = 1 s

Courant Number mean: 0.2547770700638117280512063 max: 0.5000000000000158761892521
Interface Courant Number mean: 0.0001751592356686316716632423 max: 0.2500000000000013322676296
deltaT = 0.008333333333333334952408578
Time = 0.0666667

PIMPLE: iteration 1
MULES: Solving for alpha.water
Phase-1 volume fraction = 0.0008260452399851878329400945  Min(alpha.water) = 0  Max(alpha.water) = 1.000000000000000222044605
ExecutionTime = 1.030000000000000026645353 s  ClockTime = 1 s

Courant Number mean: 0.2547770700638117835623575 max: 0.5000000000000159872115546
Interface Courant Number mean: 0.0001884288747344370709441846 max: 0.2500000000000013877787808
deltaT = 0.008333333333333334952408578
Time = 0.075

PIMPLE: iteration 1
MULES: Solving for alpha.water
Phase-1 volume fraction = 0.0008260452399851883750411807  Min(alpha.water) = 0  Max(alpha.water) = 1.000000000000000222044605
ExecutionTime = 1.090000000000000079936058 s  ClockTime = 2 s

Courant Number mean: 0.2547770700638117835623575 max: 0.5000000000000159872115546
Interface Courant Number mean: 0.0001778131634817928003085286 max: 0.2500000000000011102230246
deltaT = 0.008333333333333336687132054
Time = 0.0833333

PIMPLE: iteration 1
MULES: Solving for alpha.water
Phase-1 volume fraction = 0.0008260452399851887003018325  Min(alpha.water) = 0  Max(alpha.water) = 1
ExecutionTime = 1.149999999999999911182158 s  ClockTime = 2 s

Courant Number mean: 0.2547770700638118390735087 max: 0.5000000000000160982338571
Interface Courant Number mean: 0.0001751592356686317529784053 max: 0.2500000000000013322676296
deltaT = 0.00833333333333333842185553
Time = 0.0916667

PIMPLE: iteration 1
MULES: Solving for alpha.water
Phase-1 volume fraction = 0.0008260452399851885918816152  Min(alpha.water) = 0  Max(alpha.water) = 1
ExecutionTime = 1.209999999999999964472863 s  ClockTime = 2 s

Courant Number mean: 0.25477707006381189458466 max: 0.5000000000000162092561595
Interface Courant Number mean: 0.000172505307855470705648282 max: 0.2500000000000013877787808
deltaT = 0.008333333333333331482961626
Time = 0.1

PIMPLE: iteration 1
MULES: Solving for alpha.water
Phase-1 volume fraction = 0.0008260452399851888087220497  Min(alpha.water) = 0  Max(alpha.water) = 1
ExecutionTime = 1.570000000000000062172489 s  ClockTime = 2 s

--> FOAM Warning : 
    From void Foam::sampledSurfaces::countFields()
    in file sampledSurface/sampledSurfaces/sampledSurfaces.C at line 138
    
Cannot find registered field matching 1(alpha1)
Courant Number mean: 0.254777070063811672540055 max: 0.5000000000000157651669497
Interface Courant Number mean: 0.0001725053078554705701230104 max: 0.2500000000000011657341759
deltaT = 0.008333333333333333217685102
Time = 0.108333

PIMPLE: iteration 1
MULES: Solving for alpha.water
Phase-1 volume fraction = 0.0008260452399851888087220497  Min(alpha.water) = 0  Max(alpha.water) = 1
ExecutionTime = 1.810000000000000053290705 s  ClockTime = 2 s

Courant Number mean: 0.2547770700638117280512063 max: 0.5000000000000158761892521
Interface Courant Number mean: 0.0001831210191081148949687751 max: 0.2500000000000012212453271
deltaT = 0.008333333333333333217685102
Time = 0.116667

PIMPLE: iteration 1
MULES: Solving for alpha.water
Phase-1 volume fraction = 0.0008260452399851883750411807  Min(alpha.water) = 0  Max(alpha.water) = 1
ExecutionTime = 1.87000000000000010658141 s  ClockTime = 2 s

Courant Number mean: 0.2547770700638117280512063 max: 0.5000000000000158761892521
Interface Courant Number mean: 0.0001857749469212759151938441 max: 0.2500000000000012212453271
deltaT = 0.008333333333333334952408578
Time = 0.125

PIMPLE: iteration 1
MULES: Solving for alpha.water
Phase-1 volume fraction = 0.0008260452399851881582007462  Min(alpha.water) = 0  Max(alpha.water) = 0.9999999999999996669330926
ExecutionTime = 1.929999999999999937827511 s  ClockTime = 2 s

Courant Number mean: 0.2547770700638117835623575 max: 0.5000000000000159872115546
Interface Courant Number mean: 0.000201698513800242388909964 max: 0.2500000000000012767564783
deltaT = 0.008333333333333334952408578
Time = 0.133333

PIMPLE: iteration 1
MULES: Solving for alpha.water
Phase-1 volume fraction = 0.0008260452399851882666209635  Min(alpha.water) = 0  Max(alpha.water) = 0.9999999999999981126208581
ExecutionTime = 1.989999999999999991118216 s  ClockTime = 2 s

Courant Number mean: 0.2547770700638117835623575 max: 0.5000000000000159872115546
Interface Courant Number mean: 0.0001884288747344370709441846 max: 0.2500000000000012767564783
deltaT = 0.008333333333333334952408578
Time = 0.141667

PIMPLE: iteration 1
MULES: Solving for alpha.water
Phase-1 volume fraction = 0.0008260452399851887003018325  Min(alpha.water) = 0  Max(alpha.water) = 0.9999999999999957811525064
ExecutionTime = 2.049999999999999822364316 s  ClockTime = 3 s

Courant Number mean: 0.2547770700638117835623575 max: 0.5000000000000159872115546
Interface Courant Number mean: 0.0001910828025475981182743079 max: 0.2500000000000012767564783
deltaT = 0.008333333333333334952408578
Time = 0.15

PIMPLE: iteration 1
MULES: Solving for alpha.water
Phase-1 volume fraction = 0.0008260452399851879413603117  Min(alpha.water) = 0  Max(alpha.water) = 0.9999999999999892308366611
ExecutionTime = 2.109999999999999875655021 s  ClockTime = 3 s

Courant Number mean: 0.2547770700638117835623575 max: 0.5000000000000159872115546
Interface Courant Number mean: 0.0001937367303607591927094855 max: 0.2500000000000012767564783
deltaT = 0.008333333333333336687132054
Time = 0.158333

PIMPLE: iteration 1
MULES: Solving for alpha.water
Phase-1 volume fraction = 0.0008260452399851878329400945  Min(alpha.water) = 0  Max(alpha.water) = 0.9999999999999796829186494
ExecutionTime = 2.180000000000000159872116 s  ClockTime = 3 s

Courant Number mean: 0.2547770700638118390735087 max: 0.5000000000000160982338571
Interface Courant Number mean: 0.0001857749469212760236140614 max: 0.2500000000000013322676296
deltaT = 0.008333333333333336687132054
Time = 0.166667

PIMPLE: iteration 1
MULES: Solving for alpha.water
Phase-1 volume fraction = 0.0008260452399851883750411807  Min(alpha.water) = 0  Max(alpha.water) = 0.9999999999999796829186494
ExecutionTime = 2.240000000000000213162821 s  ClockTime = 3 s

Courant Number mean: 0.2547770700638118390735087 max: 0.5000000000000160982338571
Interface Courant Number mean: 0.0001910828025475981182743079 max: 0.2500000000000012767564783
deltaT = 0.00833333333333333842185553
Time = 0.175

PIMPLE: iteration 1
MULES: Solving for alpha.water
Phase-1 volume fraction = 0.0008260452399851881582007462  Min(alpha.water) = 0  Max(alpha.water) = 0.9999999999999714672682671
ExecutionTime = 2.299999999999999822364316 s  ClockTime = 3 s

Courant Number mean: 0.25477707006381189458466 max: 0.5000000000000162092561595
Interface Courant Number mean: 0.0001910828025475981724844166 max: 0.2500000000000013322676296
deltaT = 0.008333333333333340156579006
Time = 0.183333

PIMPLE: iteration 1
MULES: Solving for alpha.water
Phase-1 volume fraction = 0.0008260452399851883750411807  Min(alpha.water) = 0  Max(alpha.water) = 0.9999999999999642508186071
ExecutionTime = 2.359999999999999875655021 s  ClockTime = 3 s

Courant Number mean: 0.2547770700638119500958112 max: 0.500000000000016320278462
Interface Courant Number mean: 0.0001804670912949539560588691 max: 0.2500000000000013322676296
deltaT = 0.008333333333333345360749433
Time = 0.191667

PIMPLE: iteration 1
MULES: Solving for alpha.water
Phase-1 volume fraction = 0.0008260452399851885918816152  Min(alpha.water) = 0  Max(alpha.water) = 0.9999999999999572564135519
ExecutionTime = 2.419999999999999928945726 s  ClockTime = 3 s

Courant Number mean: 0.2547770700638120611181137 max: 0.5000000000000166533453694
Interface Courant Number mean: 0.0001725053078554707869634449 max: 0.2500000000000014988010832
deltaT = 0.008333333333333359238537241
Time = 0.2

PIMPLE: iteration 1
MULES: Solving for alpha.water
Phase-1 volume fraction = 0.0008260452399851888087220497  Min(alpha.water) = 0  Max(alpha.water) = 0.999999999999940714090485
ExecutionTime = 2.759999999999999786837179 s  ClockTime = 3 s

--> FOAM Warning : 
    From void Foam::sampledSurfaces::countFields()
    in file sampledSurface/sampledSurfaces/sampledSurfaces.C at line 138
    
Cannot find registered field matching 1(alpha1)
Courant Number mean: 0.2547770700638125052073235 max: 0.5000000000000174305014866
Interface Courant Number mean: 0.0001698513800423100106838648 max: 0.5000000000000005551115123
deltaT = 0.004166666666666668343566027
Time = 0.204167

PIMPLE: iteration 1
MULES: Solving for alpha.water
Phase-1 volume fraction = 0.0008260452399851878329400945  Min(alpha.water) = 0  Max(alpha.water) = 0.9999999999999025224184379
ExecutionTime = 2.850000000000000088817842 s  ClockTime = 3 s

Courant Number mean: 0.1273885350319059195367544 max: 0.2500000000000080491169285
Interface Courant Number mean: 9.288747346063801180703068e-05 max: 0.250000000000000721644966
deltaT = 0.004166666666666667476204289
Time = 0.208333

PIMPLE: iteration 1
MULES: Solving for alpha.water
Phase-1 volume fraction = 0.0008260452399851881582007462  Min(alpha.water) = 0  Max(alpha.water) = 0.9999999999997994937217527
ExecutionTime = 2.910000000000000142108547 s  ClockTime = 3 s

Courant Number mean: 0.1273885350319058917811788 max: 0.2500000000000079936057773
Interface Courant Number mean: 9.819532908696013357233157e-05 max: 0.2500000000000006661338148
deltaT = 0.004166666666666666608842551
Time = 0.2125

PIMPLE: iteration 1
MULES: Solving for alpha.water
Phase-1 volume fraction = 0.00082604523998518761609966  Min(alpha.water) = 0  Max(alpha.water) = 0.9999999999995436983368791
ExecutionTime = 2.970000000000000195399252 s  ClockTime = 3 s

Courant Number mean: 0.1273885350319058640256031 max: 0.2500000000000079380946261
Interface Courant Number mean: 0.0001048301486198627790026941 max: 0.2500000000000006106226635
deltaT = 0.004166666666666666608842551
Time = 0.216667

PIMPLE: iteration 1
MULES: Solving for alpha.water
Phase-1 volume fraction = 0.0008260452399851882666209635  Min(alpha.water) = 0  Max(alpha.water) = 0.9999999999989784837950424
ExecutionTime = 3.049999999999999822364316 s  ClockTime = 3 s

Courant Number mean: 0.1273885350319058640256031 max: 0.2500000000000079380946261
Interface Courant Number mean: 0.0001035031847132822688901596 max: 0.2500000000000006106226635
deltaT = 0.004166666666666665741480813
Time = 0.220833

PIMPLE: iteration 1
MULES: Solving for alpha.water
Phase-1 volume fraction = 0.0008260452399851881582007462  Min(alpha.water) = 0  Max(alpha.water) = 0.9999999999975277553687647
ExecutionTime = 3.109999999999999875655021 s  ClockTime = 4 s

Courant Number mean: 0.1273885350319058362700275 max: 0.2500000000000078825834748
Interface Courant Number mean: 0.0001021762208067017045675165 max: 0.2500000000000005551115123
deltaT = 0.004166666666666666608842551
Time = 0.225

PIMPLE: iteration 1
MULES: Solving for alpha.water
Phase-1 volume fraction = 0.0008260452399851875076794427  Min(alpha.water) = 0  Max(alpha.water) = 0.9999999999870321509831683
ExecutionTime = 3.169999999999999928945726 s  ClockTime = 4 s

Courant Number mean: 0.1273885350319058640256031 max: 0.2500000000000079380946261
Interface Courant Number mean: 0.0001021762208067017316725708 max: 0.2500000000000006106226635
deltaT = 0.004166666666666665741480813
Time = 0.229167

PIMPLE: iteration 1
MULES: Solving for alpha.water
Phase-1 volume fraction = 0.0008260452399851887003018325  Min(alpha.water) = 0  Max(alpha.water) = 0.9999999999760821323135929
ExecutionTime = 3.229999999999999982236432 s  ClockTime = 4 s

Courant Number mean: 0.1273885350319058362700275 max: 0.2500000000000078825834748
Interface Courant Number mean: 0.0001035031847132822688901596 max: 0.2500000000000005551115123
deltaT = 0.004166666666666664874119075
Time = 0.233333

PIMPLE: iteration 1
MULES: Solving for alpha.water
Phase-1 volume fraction = 0.0008260452399851879413603117  Min(alpha.water) = 0  Max(alpha.water) = 0.999999999972109976376089
ExecutionTime = 3.290000000000000035527137 s  ClockTime = 4 s

Courant Number mean: 0.1273885350319058085144519 max: 0.2500000000000078825834748
Interface Courant Number mean: 0.0001048301486198627518976398 max: 0.2500000000000004996003611
deltaT = 0.004166666666666665741480813
Time = 0.2375

PIMPLE: iteration 1
MULES: Solving for alpha.water
Phase-1 volume fraction = 0.0008260452399851883750411807  Min(alpha.water) = 0  Max(alpha.water) = 0.9999999999658432114912898
ExecutionTime = 3.350000000000000088817842 s  ClockTime = 4 s

Courant Number mean: 0.1273885350319058362700275 max: 0.2500000000000078825834748
Interface Courant Number mean: 0.0001035031847132822688901596 max: 0.2500000000000005551115123
deltaT = 0.004166666666666666608842551
Time = 0.241667

PIMPLE: iteration 1
MULES: Solving for alpha.water
Phase-1 volume fraction = 0.0008260452399851888087220497  Min(alpha.water) = 0  Max(alpha.water) = 0.9999999999501925085354515
ExecutionTime = 3.410000000000000142108547 s  ClockTime = 4 s

Courant Number mean: 0.1273885350319058640256031 max: 0.2500000000000079380946261
Interface Courant Number mean: 0.000102176220806701745225098 max: 0.2500000000000007771561172
deltaT = 0.004166666666666665741480813
Time = 0.245833

PIMPLE: iteration 1
MULES: Solving for alpha.water
Phase-1 volume fraction = 0.00082604523998518761609966  Min(alpha.water) = 0  Max(alpha.water) = 0.9999999999501925085354515
ExecutionTime = 3.470000000000000195399252 s  ClockTime = 4 s

Courant Number mean: 0.1273885350319058362700275 max: 0.2500000000000078825834748
Interface Courant Number mean: 0.000100849256900121194454982 max: 0.250000000000000721644966
deltaT = 0.004166666666666664874119075
Time = 0.25

PIMPLE: iteration 1
MULES: Solving for alpha.water
Phase-1 volume fraction = 0.0008260452399851887003018325  Min(alpha.water) = 0  Max(alpha.water) = 0.9999999999501925085354515
ExecutionTime = 3.529999999999999804600748 s  ClockTime = 4 s

Courant Number mean: 0.1273885350319058085144519 max: 0.2500000000000078825834748
Interface Courant Number mean: 0.0001008492569001211809024549 max: 0.2500000000000006661338148
deltaT = 0.004166666666666665741480813
Time = 0.254167

PIMPLE: iteration 1
MULES: Solving for alpha.water
Phase-1 volume fraction = 0.0008260452399851894592433532  Min(alpha.water) = 0  Max(alpha.water) = 0.9999999999501925085354515
ExecutionTime = 3.589999999999999857891453 s  ClockTime = 4 s

Courant Number mean: 0.1273885350319058362700275 max: 0.2500000000000078825834748
Interface Courant Number mean: 0.0001021762208067017181200437 max: 0.250000000000000721644966
deltaT = 0.004166666666666666608842551
Time = 0.258333

PIMPLE: iteration 1
MULES: Solving for alpha.water
Phase-1 volume fraction = 0.0008260452399851883750411807  Min(alpha.water) = 0  Max(alpha.water) = 0.9999999999501925085354515
ExecutionTime = 3.649999999999999911182158 s  ClockTime = 4 s

Courant Number mean: 0.1273885350319058640256031 max: 0.2500000000000079380946261
Interface Courant Number mean: 0.0001035031847132822824426868 max: 0.2500000000000007771561172
deltaT = 0.004166666666666668343566027
Time = 0.2625

PIMPLE: iteration 1
MULES: Solving for alpha.water
Phase-1 volume fraction = 0.0008260452399851885918816152  Min(alpha.water) = 0  Max(alpha.water) = 0.9999999999488733415375918
ExecutionTime = 3.709999999999999964472863 s  ClockTime = 4 s

Courant Number mean: 0.1273885350319059195367544 max: 0.2500000000000080491169285
Interface Courant Number mean: 0.0001008492569001212622176178 max: 0.2500000000000008881784197
deltaT = 0.004166666666666670078289503
Time = 0.266667

PIMPLE: iteration 1
MULES: Solving for alpha.water
Phase-1 volume fraction = 0.0008260452399851883750411807  Min(alpha.water) = 0  Max(alpha.water) = 0.9999999999481448131888328
ExecutionTime = 3.770000000000000017763568 s  ClockTime = 4 s

Courant Number mean: 0.1273885350319059750479056 max: 0.250000000000008160139231
Interface Courant Number mean: 0.000103503184713282390862904 max: 0.2500000000000009992007222
deltaT = 0.004166666666666672680374717
Time = 0.270833

PIMPLE: iteration 1
MULES: Solving for alpha.water
Phase-1 volume fraction = 0.0008260452399851879413603117  Min(alpha.water) = 0  Max(alpha.water) = 0.9999999999357908064823164
ExecutionTime = 3.830000000000000071054274 s  ClockTime = 4 s

Courant Number mean: 0.1273885350319060305590568 max: 0.2500000000000083266726847
Interface Courant Number mean: 0.0001061571125264435059556631 max: 0.2500000000000011657341759
deltaT = 0.004166666666666675282459931
Time = 0.275

PIMPLE: iteration 1
MULES: Solving for alpha.water
Phase-1 volume fraction = 0.0008260452399851887003018325  Min(alpha.water) = 0  Max(alpha.water) = 0.9999999998972384229745103
ExecutionTime = 3.890000000000000124344979 s  ClockTime = 4 s

Courant Number mean: 0.1273885350319061138257837 max: 0.2500000000000084932061384
Interface Courant Number mean: 0.0001074840764330241244884148 max: 0.2500000000000013322676296
deltaT = 0.004166666666666679619268621
Time = 0.279167

PIMPLE: iteration 1
MULES: Solving for alpha.water
Phase-1 volume fraction = 0.0008260452399851888087220497  Min(alpha.water) = 0  Max(alpha.water) = 0.9999999998302989689946685
ExecutionTime = 3.950000000000000177635684 s  ClockTime = 4 s

Courant Number mean: 0.1273885350319062526036618 max: 0.2500000000000087152507433
Interface Courant Number mean: 0.0001088110403396047701262209 max: 0.2500000000000015543122345
deltaT = 0.004166666666666674415098193
Time = 0.283333

PIMPLE: iteration 1
MULES: Solving for alpha.water
Phase-1 volume fraction = 0.0008260452399851879413603117  Min(alpha.water) = 0  Max(alpha.water) = 0.9999999998302989689946685
ExecutionTime = 4.009999999999999786837179 s  ClockTime = 4 s

Courant Number mean: 0.1273885350319060860702081 max: 0.2500000000000084376949872
Interface Courant Number mean: 0.0001061571125264435601657717 max: 0.2500000000000012767564783
deltaT = 0.004166666666666679619268621
Time = 0.2875

PIMPLE: iteration 1
MULES: Solving for alpha.water
Phase-1 volume fraction = 0.0008260452399851882666209635  Min(alpha.water) = 0  Max(alpha.water) = 0.9999999998053026306621405
ExecutionTime = 4.080000000000000071054274 s  ClockTime = 5 s

Courant Number mean: 0.1273885350319062526036618 max: 0.2500000000000087152507433
Interface Courant Number mean: 0.0001061571125264436956910433 max: 0.2500000000000015543122345
deltaT = 0.004166666666666689160247738
Time = 0.291667

PIMPLE: iteration 1
MULES: Solving for alpha.water
Phase-1 volume fraction = 0.0008260452399851888087220497  Min(alpha.water) = 0  Max(alpha.water) = 0.9999999998053026306621405
ExecutionTime = 4.12999999999999989341859 s  ClockTime = 5 s

Courant Number mean: 0.1273885350319065579149935 max: 0.2500000000000093258734069
Interface Courant Number mean: 0.0001088110403396050682818183 max: 0.2500000000000022204460493
deltaT = 0.004166666666666679619268621
Time = 0.295833

PIMPLE: iteration 1
MULES: Solving for alpha.water
Phase-1 volume fraction = 0.00082604523998518761609966  Min(alpha.water) = 0  Max(alpha.water) = 0.9999999998053026306621405
ExecutionTime = 4.200000000000000177635684 s  ClockTime = 5 s

Courant Number mean: 0.1273885350319062526036618 max: 0.2500000000000087152507433
Interface Courant Number mean: 9.952229299354103670815358e-05 max: 0.2500000000000016653345369
deltaT = 0.004166666666666651863693005
Time = 0.3

PIMPLE: iteration 1
MULES: Solving for alpha.water
Phase-1 volume fraction = 0.0008260452399851894592433532  Min(alpha.water) = 0  Max(alpha.water) = 0.9999999998053026306621405
ExecutionTime = 4.540000000000000035527137 s  ClockTime = 5 s

--> FOAM Warning : 
    From void Foam::sampledSurfaces::countFields()
    in file sampledSurface/sampledSurfaces/sampledSurfaces.C at line 138
    
Cannot find registered field matching 1(alpha1)
Courant Number mean: 0.1273885350319053921808177 max: 0.2500000000000070499162064
Interface Courant Number mean: 0.0001008492569001208691943303 max: 0.2500000000000007771561172
deltaT = 0.004166666666666665741480813
Time = 0.304167

PIMPLE: iteration 1
MULES: Solving for alpha.water
Phase-1 volume fraction = 0.0008260452399851879413603117  Min(alpha.water) = 0  Max(alpha.water) = 0.9999999998053026306621405
ExecutionTime = 4.62999999999999989341859 s  ClockTime = 5 s

Courant Number mean: 0.1273885350319058362700275 max: 0.2500000000000078825834748
Interface Courant Number mean: 0.0001035031847132822824426868 max: 0.2500000000000016098233857
deltaT = 0.004166666666666666608842551
Time = 0.308333

PIMPLE: iteration 1
MULES: Solving for alpha.water
Phase-1 volume fraction = 0.0008260452399851879413603117  Min(alpha.water) = 0  Max(alpha.water) = 0.9999999998053026306621405
ExecutionTime = 4.709999999999999964472863 s  ClockTime = 5 s

Courant Number mean: 0.1273885350319058640256031 max: 0.2500000000000079380946261
Interface Courant Number mean: 0.0001088110403396044719706234 max: 0.2500000000000016653345369
deltaT = 0.004166666666666666608842551
Time = 0.3125

PIMPLE: iteration 1
MULES: Solving for alpha.water
Phase-1 volume fraction = 0.00082604523998518761609966  Min(alpha.water) = 0  Max(alpha.water) = 0.9999999998053026306621405
ExecutionTime = 4.769999999999999573674359 s  ClockTime = 5 s

Courant Number mean: 0.1273885350319058640256031 max: 0.2500000000000079380946261
Interface Courant Number mean: 0.0001074840764330239347530346 max: 0.2500000000000016653345369
deltaT = 0.004166666666666667476204289
Time = 0.316667

PIMPLE: iteration 1
MULES: Solving for alpha.water
Phase-1 volume fraction = 0.0008260452399851891339827015  Min(alpha.water) = 0  Max(alpha.water) = 0.9999999998053026306621405
ExecutionTime = 4.830000000000000071054274 s  ClockTime = 5 s

Courant Number mean: 0.1273885350319058917811788 max: 0.2500000000000079936057773
Interface Courant Number mean: 0.0001074840764330239618580889 max: 0.2500000000000017208456882
deltaT = 0.004166666666666668343566027
Time = 0.320833

PIMPLE: iteration 1
MULES: Solving for alpha.water
Phase-1 volume fraction = 0.0008260452399851888087220497  Min(alpha.water) = 0  Max(alpha.water) = 0.9999999998053026306621405
ExecutionTime = 4.889999999999999680255769 s  ClockTime = 5 s

Courant Number mean: 0.1273885350319059195367544 max: 0.2500000000000080491169285
Interface Courant Number mean: 0.0001088110403396045261807321 max: 0.2500000000000017763568394
deltaT = 0.004166666666666669210927765
Time = 0.325

PIMPLE: iteration 1
MULES: Solving for alpha.water
Phase-1 volume fraction = 0.0008260452399851875076794427  Min(alpha.water) = 0  Max(alpha.water) = 0.9999999997494353198845829
ExecutionTime = 4.950000000000000177635684 s  ClockTime = 5 s

Courant Number mean: 0.12738853503190594729233 max: 0.2500000000000081046280798
Interface Courant Number mean: 0.0001101380042461850905033752 max: 0.2500000000000018318679906
deltaT = 0.004166666666666670078289503
Time = 0.329167

PIMPLE: iteration 1
MULES: Solving for alpha.water
Phase-1 volume fraction = 0.0008260452399851887003018325  Min(alpha.water) = 0  Max(alpha.water) = 0.999999999661933758332566
ExecutionTime = 5.009999999999999786837179 s  ClockTime = 5 s

Courant Number mean: 0.1273885350319059750479056 max: 0.250000000000008160139231
Interface Courant Number mean: 0.0001154458598725072258212032 max: 0.2500000000000018873791419
deltaT = 0.004166666666666671813012979
Time = 0.333333

PIMPLE: iteration 1
MULES: Solving for alpha.water
Phase-1 volume fraction = 0.0008260452399851869655783565  Min(alpha.water) = 0  Max(alpha.water) = 0.9999999995749867531813493
ExecutionTime = 5.070000000000000284217094 s  ClockTime = 6 s

Courant Number mean: 0.1273885350319060028034812 max: 0.2500000000000082711615335
Interface Courant Number mean: 0.0001127919320593462191486614 max: 0.2500000000000019984014443
deltaT = 0.004166666666666672680374717
Time = 0.3375

PIMPLE: iteration 1
MULES: Solving for alpha.water
Phase-1 volume fraction = 0.0008260452399851891339827015  Min(alpha.water) = 0  Max(alpha.water) = 0.9999999995612891545704315
ExecutionTime = 5.12999999999999989341859 s  ClockTime = 6 s

Courant Number mean: 0.1273885350319060305590568 max: 0.2500000000000083266726847
Interface Courant Number mean: 0.0001101380042461851447134838 max: 0.2500000000000020539125956
deltaT = 0.004166666666666674415098193
Time = 0.341667

PIMPLE: iteration 1
MULES: Solving for alpha.water
Phase-1 volume fraction = 0.0008260452399851878329400945  Min(alpha.water) = 0  Max(alpha.water) = 0.9999999995612891545704315
ExecutionTime = 5.190000000000000390798505 s  ClockTime = 6 s

Courant Number mean: 0.1273885350319060860702081 max: 0.2500000000000084376949872
Interface Courant Number mean: 0.0001114649681527657361411812 max: 0.250000000000002164934898
deltaT = 0.004166666666666675282459931
Time = 0.345833

PIMPLE: iteration 1
MULES: Solving for alpha.water
Phase-1 volume fraction = 0.0008260452399851881582007462  Min(alpha.water) = 0  Max(alpha.water) = 0.9999999995612891545704315
ExecutionTime = 5.25 s  ClockTime = 6 s

Courant Number mean: 0.1273885350319061138257837 max: 0.2500000000000084932061384
Interface Courant Number mean: 0.0001074840764330241651459963 max: 0.2500000000000022204460493
deltaT = 0.004166666666666677884545145
Time = 0.35

PIMPLE: iteration 1
MULES: Solving for alpha.water
Phase-1 volume fraction = 0.0008260452399851890255624842  Min(alpha.water) = 0  Max(alpha.water) = 0.9999999995612891545704315
ExecutionTime = 5.309999999999999609201495 s  ClockTime = 6 s

Courant Number mean: 0.1273885350319061970925105 max: 0.2500000000000086597395921
Interface Courant Number mean: 0.0001074840764330242600136864 max: 0.2500000000000023869795029
deltaT = 0.004166666666666679619268621
Time = 0.354167

PIMPLE: iteration 1
MULES: Solving for alpha.water
Phase-1 volume fraction = 0.0008260452399851879413603117  Min(alpha.water) = 0  Max(alpha.water) = 0.9999999995612891545704315
ExecutionTime = 5.37000000000000010658141 s  ClockTime = 6 s

Courant Number mean: 0.1273885350319062526036618 max: 0.2500000000000087152507433
Interface Courant Number mean: 0.0001074840764330242735662135 max: 0.2500000000000024424906542
deltaT = 0.004166666666666682221353835
Time = 0.358333

PIMPLE: iteration 1
MULES: Solving for alpha.water
Phase-1 volume fraction = 0.0008260452399851888087220497  Min(alpha.water) = 0  Max(alpha.water) = 0.9999999995612891545704315
ExecutionTime = 5.429999999999999715782906 s  ClockTime = 6 s

Courant Number mean: 0.1273885350319063358703886 max: 0.250000000000008881784197
Interface Courant Number mean: 0.0001088110403396049056514924 max: 0.2500000000000026090241079
deltaT = 0.004166666666666679619268621
Time = 0.3625

PIMPLE: iteration 1
MULES: Solving for alpha.water
Phase-1 volume fraction = 0.0008260452399851888087220497  Min(alpha.water) = 0  Max(alpha.water) = 0.9999999995612891545704315
ExecutionTime = 5.490000000000000213162821 s  ClockTime = 6 s

Courant Number mean: 0.1273885350319062526036618 max: 0.2500000000000087152507433
Interface Courant Number mean: 0.0001114649681527659123240342 max: 0.2500000000000024424906542
deltaT = 0.004166666666666676149821669
Time = 0.366667

PIMPLE: iteration 1
MULES: Solving for alpha.water
Phase-1 volume fraction = 0.0008260452399851879413603117  Min(alpha.water) = 0  Max(alpha.water) = 0.9999999995612891545704315
ExecutionTime = 5.559999999999999609201495 s  ClockTime = 6 s

Courant Number mean: 0.1273885350319061415813593 max: 0.2500000000000085487172896
Interface Courant Number mean: 0.0001114649681527658174563442 max: 0.2500000000000022759572005
deltaT = 0.004166666666666679619268621
Time = 0.370833

PIMPLE: iteration 1
MULES: Solving for alpha.water
Phase-1 volume fraction = 0.00082604523998518761609966  Min(alpha.water) = 0  Max(alpha.water) = 0.9999999995612891545704315
ExecutionTime = 5.62000000000000010658141 s  ClockTime = 6 s

Courant Number mean: 0.1273885350319062526036618 max: 0.2500000000000087152507433
Interface Courant Number mean: 0.0001101380042461853886589726 max: 0.2500000000000024424906542
deltaT = 0.004166666666666683956077311
Time = 0.375

PIMPLE: iteration 1
MULES: Solving for alpha.water
Phase-1 volume fraction = 0.0008260452399851873992592255  Min(alpha.water) = 0  Max(alpha.water) = 0.9999999995612891545704315
ExecutionTime = 5.679999999999999715782906 s  ClockTime = 6 s

Courant Number mean: 0.1273885350319063913815398 max: 0.2500000000000089928064995
Interface Courant Number mean: 0.0001114649681527660478493058 max: 0.2500000000000027200464103
deltaT = 0.004166666666666679619268621
Time = 0.379167

PIMPLE: iteration 1
MULES: Solving for alpha.water
Phase-1 volume fraction = 0.0008260452399851873992592255  Min(alpha.water) = 0  Max(alpha.water) = 0.9999999995612891545704315
ExecutionTime = 5.740000000000000213162821 s  ClockTime = 6 s

Courant Number mean: 0.1273885350319062526036618 max: 0.2500000000000087152507433
Interface Courant Number mean: 0.0001141188959659270138642662 max: 0.2500000000000024424906542
deltaT = 0.004166666666666674415098193
Time = 0.383333

PIMPLE: iteration 1
MULES: Solving for alpha.water
Phase-1 volume fraction = 0.0008260452399851887003018325  Min(alpha.water) = 0  Max(alpha.water) = 0.9999999995268072927601111
ExecutionTime = 5.799999999999999822364316 s  ClockTime = 6 s

Courant Number mean: 0.1273885350319060860702081 max: 0.2500000000000084376949872
Interface Courant Number mean: 0.0001167728237790879798792265 max: 0.250000000000002164934898
deltaT = 0.004166666666666679619268621
Time = 0.3875

PIMPLE: iteration 1
MULES: Solving for alpha.water
Phase-1 volume fraction = 0.0008260452399851890255624842  Min(alpha.water) = 0  Max(alpha.water) = 0.9999999992847909968674003
ExecutionTime = 5.860000000000000319744231 s  ClockTime = 6 s

Courant Number mean: 0.1273885350319062526036618 max: 0.2500000000000087152507433
Interface Courant Number mean: 0.0001141188959659270409693205 max: 0.2500000000000024424906542
deltaT = 0.004166666666666689160247738
Time = 0.391667

PIMPLE: iteration 1
MULES: Solving for alpha.water
Phase-1 volume fraction = 0.0008260452399851888087220497  Min(alpha.water) = 0  Max(alpha.water) = 0.9999999992065112808248273
ExecutionTime = 5.919999999999999928945726 s  ClockTime = 6 s

Courant Number mean: 0.1273885350319065579149935 max: 0.2500000000000093258734069
Interface Courant Number mean: 0.0001127919320593467612497476 max: 0.2500000000000030531133177
deltaT = 0.004166666666666679619268621
Time = 0.395833

PIMPLE: iteration 1
MULES: Solving for alpha.water
Phase-1 volume fraction = 0.0008260452399851882666209635  Min(alpha.water) = 0  Max(alpha.water) = 0.9999999991547139366332431
ExecutionTime = 5.980000000000000426325641 s  ClockTime = 6 s

Courant Number mean: 0.1273885350319062526036618 max: 0.2500000000000087152507433
Interface Courant Number mean: 0.0001141188959659270409693205 max: 0.2500000000000024424906542
deltaT = 0.004166666666666651863693005
Time = 0.4

PIMPLE: iteration 1
MULES: Solving for alpha.water
Phase-1 volume fraction = 0.0008260452399851882666209635  Min(alpha.water) = 0  Max(alpha.water) = 0.9999999991547139366332431
ExecutionTime = 6.360000000000000319744231 s  ClockTime = 7 s

--> FOAM Warning : 
    From void Foam::sampledSurfaces::countFields()
    in file sampledSurface/sampledSurfaces/sampledSurfaces.C at line 138
    
Cannot find registered field matching 1(alpha1)
Courant Number mean: 0.1273885350319053921808177 max: 0.2500000000000070499162064
Interface Courant Number mean: 0.0001141188959659262820277997 max: 0.2500000000000007771561172
deltaT = 0.004166666666666665741480813
Time = 0.404167

PIMPLE: iteration 1
MULES: Solving for alpha.water
Phase-1 volume fraction = 0.0008260452399851885918816152  Min(alpha.water) = 0  Max(alpha.water) = 0.9999999991547139366332431
ExecutionTime = 6.450000000000000177635684 s  ClockTime = 7 s

Courant Number mean: 0.1273885350319058362700275 max: 0.2500000000000078825834748
Interface Courant Number mean: 0.0001167728237790877494862649 max: 0.2500000000000016098233857
deltaT = 0.004166666666666666608842551
Time = 0.408333

PIMPLE: iteration 1
MULES: Solving for alpha.water
Phase-1 volume fraction = 0.0008260452399851870739985737  Min(alpha.water) = 0  Max(alpha.water) = 0.9999999991547139366332431
ExecutionTime = 6.509999999999999786837179 s  ClockTime = 7 s

Courant Number mean: 0.1273885350319058640256031 max: 0.2500000000000079380946261
Interface Courant Number mean: 0.0001180997876856683409139623 max: 0.2500000000000016653345369
deltaT = 0.004166666666666666608842551
Time = 0.4125

PIMPLE: iteration 1
MULES: Solving for alpha.water
Phase-1 volume fraction = 0.0008260452399851885918816152  Min(alpha.water) = 0  Max(alpha.water) = 0.9999999991547139366332431
ExecutionTime = 6.570000000000000284217094 s  ClockTime = 7 s

Courant Number mean: 0.1273885350319058640256031 max: 0.2500000000000079380946261
Interface Courant Number mean: 0.0001234076433119904762317903 max: 0.2500000000000016653345369
deltaT = 0.004166666666666667476204289
Time = 0.416667

PIMPLE: iteration 1
MULES: Solving for alpha.water
Phase-1 volume fraction = 0.0008260452399851888087220497  Min(alpha.water) = 0  Max(alpha.water) = 0.9999999991547139366332431
ExecutionTime = 6.62999999999999989341859 s  ClockTime = 7 s

Courant Number mean: 0.1273885350319058917811788 max: 0.2500000000000079936057773
Interface Courant Number mean: 0.0001234076433119905033368446 max: 0.2500000000000017208456882
deltaT = 0.004166666666666668343566027
Time = 0.420833

PIMPLE: iteration 1
MULES: Solving for alpha.water
Phase-1 volume fraction = 0.0008260452399851882666209635  Min(alpha.water) = 0  Max(alpha.water) = 0.9999999991547139366332431
ExecutionTime = 6.690000000000000390798505 s  ClockTime = 7 s

Courant Number mean: 0.1273885350319059195367544 max: 0.2500000000000080491169285
Interface Courant Number mean: 0.0001194267515922488781315511 max: 0.2500000000000017763568394
deltaT = 0.004166666666666669210927765
Time = 0.425

PIMPLE: iteration 1
MULES: Solving for alpha.water
Phase-1 volume fraction = 0.0008260452399851891339827015  Min(alpha.water) = 0  Max(alpha.water) = 0.9999999991547139366332431
ExecutionTime = 6.759999999999999786837179 s  ClockTime = 7 s

Courant Number mean: 0.12738853503190594729233 max: 0.2500000000000081046280798
Interface Courant Number mean: 0.000116772823779087844353955 max: 0.2500000000000018318679906
deltaT = 0.004166666666666670078289503
Time = 0.429167

PIMPLE: iteration 1
MULES: Solving for alpha.water
Phase-1 volume fraction = 0.0008260452399851882666209635  Min(alpha.water) = 0  Max(alpha.water) = 0.9999999991547139366332431
ExecutionTime = 6.820000000000000284217094 s  ClockTime = 7 s

Courant Number mean: 0.1273885350319059750479056 max: 0.250000000000008160139231
Interface Courant Number mean: 0.0001167728237790878579064821 max: 0.2500000000000018873791419
deltaT = 0.004166666666666671813012979
Time = 0.433333

PIMPLE: iteration 1
MULES: Solving for alpha.water
Phase-1 volume fraction = 0.0008260452399851883750411807  Min(alpha.water) = 0  Max(alpha.water) = 0.9999999991547139366332431
ExecutionTime = 6.87999999999999989341859 s  ClockTime = 7 s

Courant Number mean: 0.1273885350319060028034812 max: 0.2500000000000082711615335
Interface Courant Number mean: 0.000124734607218571176079705 max: 0.2500000000000019984014443
deltaT = 0.004166666666666672680374717
Time = 0.4375

PIMPLE: iteration 1
MULES: Solving for alpha.water
Phase-1 volume fraction = 0.0008260452399851879413603117  Min(alpha.water) = 0  Max(alpha.water) = 0.9999999991547139366332431
ExecutionTime = 6.940000000000000390798505 s  ClockTime = 7 s

Courant Number mean: 0.1273885350319060305590568 max: 0.2500000000000083266726847
Interface Courant Number mean: 0.0001234076433119906930722248 max: 0.2500000000000020539125956
deltaT = 0.004166666666666674415098193
Time = 0.441667

PIMPLE: iteration 1
MULES: Solving for alpha.water
Phase-1 volume fraction = 0.0008260452399851878329400945  Min(alpha.water) = 0  Max(alpha.water) = 0.9999999989483544515778135
ExecutionTime = 7 s  ClockTime = 7 s

Courant Number mean: 0.1273885350319060860702081 max: 0.2500000000000084376949872
Interface Courant Number mean: 0.0001220806794054101829596903 max: 0.250000000000002164934898
deltaT = 0.004166666666666675282459931
Time = 0.445833

PIMPLE: iteration 1
MULES: Solving for alpha.water
Phase-1 volume fraction = 0.0008260452399851881582007462  Min(alpha.water) = 0  Max(alpha.water) = 0.9999999975389995965358025
ExecutionTime = 7.070000000000000284217094 s  ClockTime = 8 s

Courant Number mean: 0.1273885350319061138257837 max: 0.2500000000000084932061384
Interface Courant Number mean: 0.0001194267515922490814194584 max: 0.2500000000000022204460493
deltaT = 0.004166666666666677884545145
Time = 0.45

PIMPLE: iteration 1
MULES: Solving for alpha.water
Phase-1 volume fraction = 0.0008260452399851885918816152  Min(alpha.water) = 0  Max(alpha.water) = 0.9999999962382210005884531
ExecutionTime = 7.12999999999999989341859 s  ClockTime = 8 s

Courant Number mean: 0.1273885350319061970925105 max: 0.2500000000000086597395921
Interface Courant Number mean: 0.0001234076433119908014924421 max: 0.2500000000000023869795029
deltaT = 0.004166666666666679619268621
Time = 0.454167

PIMPLE: iteration 1
MULES: Solving for alpha.water
Phase-1 volume fraction = 0.0008260452399851887003018325  Min(alpha.water) = 0  Max(alpha.water) = 0.9999999945637437770429301
ExecutionTime = 7.230000000000000426325641 s  ClockTime = 8 s

Courant Number mean: 0.1273885350319062526036618 max: 0.2500000000000087152507433
Interface Courant Number mean: 0.0001273885350317324944603714 max: 0.2500000000000024424906542
deltaT = 0.004166666666666682221353835
Time = 0.458333

PIMPLE: iteration 1
MULES: Solving for alpha.water
Phase-1 volume fraction = 0.0008260452399851866403177048  Min(alpha.water) = 0  Max(alpha.water) = 0.9999999911547468034456188
ExecutionTime = 7.290000000000000035527137 s  ClockTime = 8 s

Courant Number mean: 0.1273885350319063358703886 max: 0.250000000000008881784197
Interface Courant Number mean: 0.0001260615711251520385579455 max: 0.2500000000000026090241079
deltaT = 0.004166666666666679619268621
Time = 0.4625

PIMPLE: iteration 1
MULES: Solving for alpha.water
Phase-1 volume fraction = 0.0008260452399851887003018325  Min(alpha.water) = 0  Max(alpha.water) = 0.9999999911547468034456188
ExecutionTime = 7.349999999999999644728632 s  ClockTime = 8 s

Courant Number mean: 0.1273885350319062526036618 max: 0.2500000000000087152507433
Interface Courant Number mean: 0.0001220806794054103455900162 max: 0.2500000000000024424906542
deltaT = 0.004166666666666676149821669
Time = 0.466667

PIMPLE: iteration 1
MULES: Solving for alpha.water
Phase-1 volume fraction = 0.0008260452399851879413603117  Min(alpha.water) = 0  Max(alpha.water) = 0.9999999911547468034456188
ExecutionTime = 7.410000000000000142108547 s  ClockTime = 8 s

Courant Number mean: 0.1273885350319061415813593 max: 0.2500000000000085487172896
Interface Courant Number mean: 0.0001247346072185713116049766 max: 0.250000000000002886579864
deltaT = 0.004166666666666679619268621
Time = 0.470833

PIMPLE: iteration 1
MULES: Solving for alpha.water
Phase-1 volume fraction = 0.0008260452399851881582007462  Min(alpha.water) = 0  Max(alpha.water) = 0.9999999911547468034456188
ExecutionTime = 7.469999999999999751310042 s  ClockTime = 8 s

Courant Number mean: 0.1273885350319062526036618 max: 0.2500000000000087152507433
Interface Courant Number mean: 0.0001194267515922492033922028 max: 0.250000000000003108624469
deltaT = 0.004166666666666683956077311
Time = 0.475

PIMPLE: iteration 1
MULES: Solving for alpha.water
Phase-1 volume fraction = 0.0008260452399851882666209635  Min(alpha.water) = 0  Max(alpha.water) = 0.9999999911547468034456188
ExecutionTime = 7.540000000000000035527137 s  ClockTime = 8 s

Courant Number mean: 0.1273885350319063913815398 max: 0.2500000000000089928064995
Interface Courant Number mean: 0.0001167728237790882238247153 max: 0.2500000000000033306690739
deltaT = 0.004166666666666679619268621
Time = 0.479167

PIMPLE: iteration 1
MULES: Solving for alpha.water
Phase-1 volume fraction = 0.0008260452399851879413603117  Min(alpha.water) = 0  Max(alpha.water) = 0.9999999909682556475942761
ExecutionTime = 7.599999999999999644728632 s  ClockTime = 8 s

Courant Number mean: 0.1273885350319062526036618 max: 0.2500000000000087152507433
Interface Courant Number mean: 0.0001247346072185713658150852 max: 0.250000000000003108624469
deltaT = 0.004166666666666674415098193
Time = 0.483333

PIMPLE: iteration 1
MULES: Solving for alpha.water
Phase-1 volume fraction = 0.0008260452399851878329400945  Min(alpha.water) = 0  Max(alpha.water) = 0.9999999905614398443276514
ExecutionTime = 7.660000000000000142108547 s  ClockTime = 8 s

Courant Number mean: 0.1273885350319060860702081 max: 0.2500000000000084376949872
Interface Courant Number mean: 0.0001273885350317323047249912 max: 0.2500000000000027755575616
deltaT = 0.004166666666666679619268621
Time = 0.4875

PIMPLE: iteration 1
MULES: Solving for alpha.water
Phase-1 volume fraction = 0.0008260452399851875076794427  Min(alpha.water) = 0  Max(alpha.water) = 0.9999999896371899454905474
ExecutionTime = 7.719999999999999751310042 s  ClockTime = 8 s

Courant Number mean: 0.1273885350319062526036618 max: 0.2500000000000087152507433
Interface Courant Number mean: 0.000130042462844893568895549 max: 0.250000000000003108624469
deltaT = 0.004166666666666689160247738
Time = 0.491667

PIMPLE: iteration 1
MULES: Solving for alpha.water
Phase-1 volume fraction = 0.0008260452399851885918816152  Min(alpha.water) = 0  Max(alpha.water) = 0.999999988356144564605188
ExecutionTime = 7.780000000000000248689958 s  ClockTime = 8 s

Courant Number mean: 0.1273885350319065579149935 max: 0.2500000000000093258734069
Interface Courant Number mean: 0.000128715498938313356938612 max: 0.2500000000000036637359813
deltaT = 0.004166666666666679619268621
Time = 0.495833

PIMPLE: iteration 1
MULES: Solving for alpha.water
Phase-1 volume fraction = 0.00082604523998518761609966  Min(alpha.water) = 0  Max(alpha.water) = 0.999999986393889761515652
ExecutionTime = 7.860000000000000319744231 s  ClockTime = 8 s

Courant Number mean: 0.1273885350319062526036618 max: 0.2500000000000087152507433
Interface Courant Number mean: 0.0001273885350317324944603714 max: 0.250000000000003108624469
deltaT = 0.004166666666666651863693005
Time = 0.5

PIMPLE: iteration 1
MULES: Solving for alpha.water
Phase-1 volume fraction = 0.0008260452399851870739985737  Min(alpha.water) = 0  Max(alpha.water) = 0.9999999565416952673757578
ExecutionTime = 8.230000000000000426325641 s  ClockTime = 9 s

--> FOAM Warning : 
    From void Foam::sampledSurfaces::countFields()
    in file sampledSurface/sampledSurfaces/sampledSurfaces.C at line 138
    
Cannot find registered field matching 1(alpha1)
Courant Number mean: 0.1273885350319053921808177 max: 0.2500000000000070499162064
Interface Courant Number mean: 0.0001287154989383121643162222 max: 0.250000000000001443289932
deltaT = 0.004166666666666670078289503
Time = 0.504167

PIMPLE: iteration 1
MULES: Solving for alpha.water
Phase-1 volume fraction = 0.0008260452399851879413603117  Min(alpha.water) = 0  Max(alpha.water) = 0.999999947539050526579274
ExecutionTime = 8.320000000000000284217094 s  ClockTime = 9 s

Courant Number mean: 0.1273885350319059750479056 max: 0.250000000000008160139231
Interface Courant Number mean: 0.0001313694267514738079575404 max: 0.2500000000000024980018054
deltaT = 0.004166666666666670945651241
Time = 0.508333

PIMPLE: iteration 1
MULES: Solving for alpha.water
Phase-1 volume fraction = 0.0008260452399851881582007462  Min(alpha.water) = 0  Max(alpha.water) = 0.9999998932737600432218983
ExecutionTime = 8.390000000000000568434189 s  ClockTime = 9 s

Courant Number mean: 0.1273885350319060028034812 max: 0.2500000000000082156503822
Interface Courant Number mean: 0.0001340233545646349094977723 max: 0.2500000000000025535129566
deltaT = 0.004166666666666671813012979
Time = 0.5125

PIMPLE: iteration 1
MULES: Solving for alpha.water
Phase-1 volume fraction = 0.0008260452399851882666209635  Min(alpha.water) = 0  Max(alpha.water) = 0.9999998932737600432218983
ExecutionTime = 8.470000000000000639488462 s  ClockTime = 9 s

Courant Number mean: 0.1273885350319060028034812 max: 0.2500000000000082711615335
Interface Courant Number mean: 0.0001340233545646349366028266 max: 0.2500000000000018873791419
deltaT = 0.004166666666666672680374717
Time = 0.516667

PIMPLE: iteration 1
MULES: Solving for alpha.water
Phase-1 volume fraction = 0.0008260452399851887003018325  Min(alpha.water) = 0  Max(alpha.water) = 0.9999998932737600432218983
ExecutionTime = 8.529999999999999360511538 s  ClockTime = 9 s

Courant Number mean: 0.1273885350319060305590568 max: 0.2500000000000083266726847
Interface Courant Number mean: 0.0001340233545646349637078809 max: 0.2500000000000019428902931
deltaT = 0.004166666666666674415098193
Time = 0.520833

PIMPLE: iteration 1
MULES: Solving for alpha.water
Phase-1 volume fraction = 0.0008260452399851888087220497  Min(alpha.water) = 0  Max(alpha.water) = 0.9999998932737600432218983
ExecutionTime = 8.599999999999999644728632 s  ClockTime = 9 s

Courant Number mean: 0.1273885350319060860702081 max: 0.2500000000000084376949872
Interface Courant Number mean: 0.0001260615711251517946124567 max: 0.2500000000000020539125956
deltaT = 0.004166666666666675282459931
Time = 0.525

PIMPLE: iteration 1
MULES: Solving for alpha.water
Phase-1 volume fraction = 0.0008260452399851879413603117  Min(alpha.water) = 0  Max(alpha.water) = 0.9999998932737600432218983
ExecutionTime = 8.660000000000000142108547 s  ClockTime = 9 s

Courant Number mean: 0.1273885350319061138257837 max: 0.2500000000000084932061384
Interface Courant Number mean: 0.0001260615711251517675074024 max: 0.2500000000000021094237468
deltaT = 0.004166666666666676149821669
Time = 0.529167

PIMPLE: iteration 1
MULES: Solving for alpha.water
Phase-1 volume fraction = 0.0008260452399851875076794427  Min(alpha.water) = 0  Max(alpha.water) = 0.9999998932737600432218983
ExecutionTime = 8.720000000000000639488462 s  ClockTime = 9 s

Courant Number mean: 0.1273885350319061415813593 max: 0.2500000000000085487172896
Interface Courant Number mean: 0.0001326963906580545620155637 max: 0.250000000000002164934898
deltaT = 0.004166666666666677884545145
Time = 0.533333

PIMPLE: iteration 1
MULES: Solving for alpha.water
Phase-1 volume fraction = 0.0008260452399851878329400945  Min(alpha.water) = 0  Max(alpha.water) = 0.9999998932737600432218983
ExecutionTime = 8.779999999999999360511538 s  ClockTime = 9 s

Courant Number mean: 0.1273885350319061970925105 max: 0.2500000000000086597395921
Interface Courant Number mean: 0.0001353503184712156906608499 max: 0.2500000000000022759572005
deltaT = 0.004166666666666679619268621
Time = 0.5375

PIMPLE: iteration 1
MULES: Solving for alpha.water
Phase-1 volume fraction = 0.0008260452399851881582007462  Min(alpha.water) = 0  Max(alpha.water) = 0.9999998932737600432218983
ExecutionTime = 8.839999999999999857891453 s  ClockTime = 9 s

Courant Number mean: 0.1273885350319062526036618 max: 0.2500000000000087152507433
Interface Courant Number mean: 0.000140658174097538002161531 max: 0.2500000000000023869795029
deltaT = 0.004166666666666681353992097
Time = 0.541667

PIMPLE: iteration 1
MULES: Solving for alpha.water
Phase-1 volume fraction = 0.0008260452399851888087220497  Min(alpha.water) = 0  Max(alpha.water) = 0.9999998932737600432218983
ExecutionTime = 8.900000000000000355271368 s  ClockTime = 9 s

Courant Number mean: 0.127388535031906308114813 max: 0.2500000000000088262730458
Interface Courant Number mean: 0.0001393312101909575462591051 max: 0.2500000000000024980018054
deltaT = 0.004166666666666683956077311
Time = 0.545833

PIMPLE: iteration 1
MULES: Solving for alpha.water
Phase-1 volume fraction = 0.0008260452399851879413603117  Min(alpha.water) = 0  Max(alpha.water) = 0.9999998932737600432218983
ExecutionTime = 8.960000000000000852651283 s  ClockTime = 9 s

Courant Number mean: 0.1273885350319063913815398 max: 0.2500000000000089928064995
Interface Courant Number mean: 0.0001353503184712159888164473 max: 0.2500000000000026090241079
deltaT = 0.004166666666666685690800787
Time = 0.55

PIMPLE: iteration 1
MULES: Solving for alpha.water
Phase-1 volume fraction = 0.0008260452399851882666209635  Min(alpha.water) = 0  Max(alpha.water) = 0.9999998932737600432218983
ExecutionTime = 9.029999999999999360511538 s  ClockTime = 9 s

Courant Number mean: 0.1273885350319064468926911 max: 0.2500000000000091038288019
Interface Courant Number mean: 0.0001313694267514743500586266 max: 0.2500000000000027200464103
deltaT = 0.004166666666666689160247738
Time = 0.554167

PIMPLE: iteration 1
MULES: Solving for alpha.water
Phase-1 volume fraction = 0.0008260452399851887003018325  Min(alpha.water) = 0  Max(alpha.water) = 0.9999998932737600432218983
ExecutionTime = 9.089999999999999857891453 s  ClockTime = 10 s

Courant Number mean: 0.1273885350319065579149935 max: 0.2500000000000093258734069
Interface Courant Number mean: 0.0001380042462843772800920594 max: 0.2500000000000029976021665
deltaT = 0.00416666666666669262969469
Time = 0.558333

PIMPLE: iteration 1
MULES: Solving for alpha.water
Phase-1 volume fraction = 0.0008260452399851887003018325  Min(alpha.water) = 0  Max(alpha.water) = 0.9999998932737754753219406
ExecutionTime = 9.150000000000000355271368 s  ClockTime = 10 s

Courant Number mean: 0.1273885350319066411817204 max: 0.2500000000000095479180118
Interface Courant Number mean: 0.0001419851380041190543751517 max: 0.2500000000000032196467714
deltaT = 0.004166666666666696099141642
Time = 0.5625

PIMPLE: iteration 1
MULES: Solving for alpha.water
Phase-1 volume fraction = 0.0008260452399851883750411807  Min(alpha.water) = 0  Max(alpha.water) = 0.9999998932737754753219406
ExecutionTime = 9.210000000000000852651283 s  ClockTime = 10 s

Courant Number mean: 0.1273885350319067522040228 max: 0.2500000000000097144514655
Interface Courant Number mean: 0.0001326963906580552938520301 max: 0.2500000000000034416913763
deltaT = 0.00416666666666670130331207
Time = 0.566667

PIMPLE: iteration 1
MULES: Solving for alpha.water
Phase-1 volume fraction = 0.0008260452399851885918816152  Min(alpha.water) = 0  Max(alpha.water) = 0.9999998932737754753219406
ExecutionTime = 9.269999999999999573674359 s  ClockTime = 10 s

Courant Number mean: 0.1273885350319069187374765 max: 0.2500000000000100475183729
Interface Courant Number mean: 0.0001300424628448944091522327 max: 0.2500000000000037192471325
deltaT = 0.004166666666666707374844236
Time = 0.570833

PIMPLE: iteration 1
MULES: Solving for alpha.water
Phase-1 volume fraction = 0.0008260452399851885918816152  Min(alpha.water) = 0  Max(alpha.water) = 0.9999998932737754753219406
ExecutionTime = 9.330000000000000071054274 s  ClockTime = 10 s

Courant Number mean: 0.1273885350319071130265058 max: 0.2500000000000103805852802
Interface Courant Number mean: 0.0001287154989383140345649698 max: 0.2500000000000046629367034
deltaT = 0.004166666666666715181099878
Time = 0.575

PIMPLE: iteration 1
MULES: Solving for alpha.water
Phase-1 volume fraction = 0.0008260452399851882666209635  Min(alpha.water) = 0  Max(alpha.water) = 0.9999998932737754753219406
ExecutionTime = 9.400000000000000355271368 s  ClockTime = 10 s

Courant Number mean: 0.1273885350319073350711108 max: 0.2500000000000108801856413
Interface Courant Number mean: 0.0001300424628448948157280474 max: 0.2500000000000051070259133
deltaT = 0.004166666666666707374844236
Time = 0.579167

PIMPLE: iteration 1
MULES: Solving for alpha.water
Phase-1 volume fraction = 0.0008260452399851883750411807  Min(alpha.water) = 0  Max(alpha.water) = 0.9999998932737754753219406
ExecutionTime = 9.460000000000000852651283 s  ClockTime = 10 s

Courant Number mean: 0.1273885350319071130265058 max: 0.2500000000000103805852802
Interface Courant Number mean: 0.0001353503184712168019680767 max: 0.2500000000000046629367034
deltaT = 0.004166666666666696099141642
Time = 0.583333

PIMPLE: iteration 1
MULES: Solving for alpha.water
Phase-1 volume fraction = 0.0008260452399851883750411807  Min(alpha.water) = 0  Max(alpha.water) = 0.9999998932737754753219406
ExecutionTime = 9.519999999999999573674359 s  ClockTime = 10 s

Courant Number mean: 0.1273885350319067522040228 max: 0.2500000000000097144514655
Interface Courant Number mean: 0.0001406581740975386797878888 max: 0.2500000000000039968028887
deltaT = 0.004166666666666707374844236
Time = 0.5875

PIMPLE: iteration 1
MULES: Solving for alpha.water
Phase-1 volume fraction = 0.0008260452399851885918816152  Min(alpha.water) = 0  Max(alpha.water) = 0.9999998932737754753219406
ExecutionTime = 9.580000000000000071054274 s  ClockTime = 10 s

Courant Number mean: 0.1273885350319071130265058 max: 0.2500000000000103805852802
Interface Courant Number mean: 0.0001472929936304418266617561 max: 0.2500000000000046629367034
deltaT = 0.004166666666666725589440734
Time = 0.591667

PIMPLE: iteration 1
MULES: Solving for alpha.water
Phase-1 volume fraction = 0.0008260452399851891339827015  Min(alpha.water) = 0  Max(alpha.water) = 0.9999998932737754753219406
ExecutionTime = 9.640000000000000568434189 s  ClockTime = 10 s

Courant Number mean: 0.1273885350319076681380182 max: 0.2500000000000114908083049
Interface Courant Number mean: 0.0001472929936304424500780053 max: 0.2500000000000057731597281
deltaT = 0.004166666666666707374844236
Time = 0.595833

PIMPLE: iteration 1
MULES: Solving for alpha.water
Phase-1 volume fraction = 0.0008260452399851890255624842  Min(alpha.water) = 0  Max(alpha.water) = 0.9999998932737754753219406
ExecutionTime = 9.699999999999999289457264 s  ClockTime = 10 s

Courant Number mean: 0.1273885350319071130265058 max: 0.2500000000000103805852802
Interface Courant Number mean: 0.0001472929936304417995567018 max: 0.2500000000000046629367034
deltaT = 0.004166666666666651863693005
Time = 0.6

PIMPLE: iteration 1
MULES: Solving for alpha.water
Phase-1 volume fraction = 0.0008260452399851885918816152  Min(alpha.water) = 0  Max(alpha.water) = 0.99999989327755356427474
ExecutionTime = 10.07000000000000028421709 s  ClockTime = 11 s

--> FOAM Warning : 
    From void Foam::sampledSurfaces::countFields()
    in file sampledSurface/sampledSurfaces/sampledSurfaces.C at line 138
    
Cannot find registered field matching 1(alpha1)
Courant Number mean: 0.1273885350319053921808177 max: 0.2500000000000070499162064
Interface Courant Number mean: 0.0001433121019106981821299163 max: 0.2500000000000013322676296
deltaT = 0.004166666666666665741480813
Time = 0.604167

PIMPLE: iteration 1
MULES: Solving for alpha.water
Phase-1 volume fraction = 0.0008260452399851878329400945  Min(alpha.water) = 0  Max(alpha.water) = 0.99999989327755356427474
ExecutionTime = 10.16999999999999992894573 s  ClockTime = 11 s

Courant Number mean: 0.1273885350319058362700275 max: 0.2500000000000078825834748
Interface Courant Number mean: 0.0001486199575370208459963034 max: 0.250000000000002164934898
deltaT = 0.004166666666666666608842551
Time = 0.608333

PIMPLE: iteration 1
MULES: Solving for alpha.water
Phase-1 volume fraction = 0.0008260452399851881582007462  Min(alpha.water) = 0  Max(alpha.water) = 0.99999989327755356427474
ExecutionTime = 10.23000000000000042632564 s  ClockTime = 11 s

Courant Number mean: 0.1273885350319058640256031 max: 0.2500000000000079380946261
Interface Courant Number mean: 0.0001512738853501819475365353 max: 0.2500000000000022204460493
deltaT = 0.004166666666666666608842551
Time = 0.6125

PIMPLE: iteration 1
MULES: Solving for alpha.water
Phase-1 volume fraction = 0.00082604523998518761609966  Min(alpha.water) = 0  Max(alpha.water) = 0.99999989327755356427474
ExecutionTime = 10.28999999999999914734872 s  ClockTime = 11 s

Courant Number mean: 0.1273885350319058640256031 max: 0.2500000000000079380946261
Interface Courant Number mean: 0.0001406581740975376226907706 max: 0.2500000000000022204460493
deltaT = 0.004166666666666667476204289
Time = 0.616667

PIMPLE: iteration 1
MULES: Solving for alpha.water
Phase-1 volume fraction = 0.0008260452399851887003018325  Min(alpha.water) = 0  Max(alpha.water) = 0.99999989327755356427474
ExecutionTime = 10.36999999999999921840299 s  ClockTime = 11 s

Courant Number mean: 0.1273885350319058917811788 max: 0.2500000000000079936057773
Interface Courant Number mean: 0.0001393312101909570583681275 max: 0.2500000000000017208456882
deltaT = 0.004166666666666668343566027
Time = 0.620833

PIMPLE: iteration 1
MULES: Solving for alpha.water
Phase-1 volume fraction = 0.0008260452399851885918816152  Min(alpha.water) = 0  Max(alpha.water) = 0.9999998932775723270438561
ExecutionTime = 10.42999999999999971578291 s  ClockTime = 11 s

Courant Number mean: 0.1273885350319059195367544 max: 0.2500000000000080491169285
Interface Courant Number mean: 0.0001326963906580543722801835 max: 0.2500000000000017763568394
deltaT = 0.004166666666666669210927765
Time = 0.625

PIMPLE: iteration 1
MULES: Solving for alpha.water
Phase-1 volume fraction = 0.0008260452399851878329400945  Min(alpha.water) = 0  Max(alpha.water) = 0.9999998932827812714307925
ExecutionTime = 10.49000000000000021316282 s  ClockTime = 11 s

Courant Number mean: 0.12738853503190594729233 max: 0.2500000000000081046280798
Interface Courant Number mean: 0.0001353503184712154738204154 max: 0.2500000000000018318679906
deltaT = 0.004166666666666670078289503
Time = 0.629167

PIMPLE: iteration 1
MULES: Solving for alpha.water
Phase-1 volume fraction = 0.0008260452399851878329400945  Min(alpha.water) = 0  Max(alpha.water) = 0.9999998932827812714307925
ExecutionTime = 10.55000000000000071054274 s  ClockTime = 11 s

Courant Number mean: 0.1273885350319059750479056 max: 0.250000000000008160139231
Interface Courant Number mean: 0.0001406581740975377040059335 max: 0.2500000000000018873791419
deltaT = 0.004166666666666671813012979
Time = 0.633333

PIMPLE: iteration 1
MULES: Solving for alpha.water
Phase-1 volume fraction = 0.0008260452399851885918816152  Min(alpha.water) = 0  Max(alpha.water) = 0.9999998932828544351281153
ExecutionTime = 10.60999999999999943156581 s  ClockTime = 11 s

Courant Number mean: 0.1273885350319060028034812 max: 0.2500000000000082711615335
Interface Courant Number mean: 0.000148619957537020981521575 max: 0.2500000000000021094237468
deltaT = 0.004166666666666672680374717
Time = 0.6375

PIMPLE: iteration 1
MULES: Solving for alpha.water
Phase-1 volume fraction = 0.0008260452399851887003018325  Min(alpha.water) = 0  Max(alpha.water) = 0.9999998934021685492723464
ExecutionTime = 10.67999999999999971578291 s  ClockTime = 11 s

Courant Number mean: 0.1273885350319060305590568 max: 0.2500000000000083266726847
Interface Courant Number mean: 0.0001526008492567627015945586 max: 0.250000000000002164934898
deltaT = 0.004166666666666674415098193
Time = 0.641667

PIMPLE: iteration 1
MULES: Solving for alpha.water
Phase-1 volume fraction = 0.0008260452399851875076794427  Min(alpha.water) = 0  Max(alpha.water) = 0.9999998934075231549201135
ExecutionTime = 10.74000000000000021316282 s  ClockTime = 11 s

Courant Number mean: 0.1273885350319060860702081 max: 0.2500000000000084376949872
Interface Courant Number mean: 0.0001565817409765043945624879 max: 0.2500000000000022759572005
deltaT = 0.004166666666666675282459931
Time = 0.645833

PIMPLE: iteration 1
MULES: Solving for alpha.water
Phase-1 volume fraction = 0.0008260452399851878329400945  Min(alpha.water) = 0  Max(alpha.water) = 0.9999998934075231549201135
ExecutionTime = 10.80000000000000071054274 s  ClockTime = 11 s

Courant Number mean: 0.1273885350319061138257837 max: 0.2500000000000084932061384
Interface Courant Number mean: 0.0001499469214436016542644353 max: 0.2500000000000023314683517
deltaT = 0.004166666666666677884545145
Time = 0.65

PIMPLE: iteration 1
MULES: Solving for alpha.water
Phase-1 volume fraction = 0.0008260452399851887003018325  Min(alpha.water) = 0  Max(alpha.water) = 0.9999998934075231549201135
ExecutionTime = 10.85999999999999943156581 s  ClockTime = 11 s

Courant Number mean: 0.1273885350319061970925105 max: 0.2500000000000086597395921
Interface Courant Number mean: 0.0001459660297238600968217775 max: 0.2500000000000024980018054
deltaT = 0.004166666666666679619268621
Time = 0.654167

PIMPLE: iteration 1
MULES: Solving for alpha.water
Phase-1 volume fraction = 0.0008260452399851870739985737  Min(alpha.water) = 0  Max(alpha.water) = 0.9999998934548268714195274
ExecutionTime = 10.91999999999999992894573 s  ClockTime = 11 s

Courant Number mean: 0.1273885350319062526036618 max: 0.2500000000000087152507433
Interface Courant Number mean: 0.0001486199575370212254670638 max: 0.2500000000000026090241079
deltaT = 0.004166666666666682221353835
Time = 0.658333

PIMPLE: iteration 1
MULES: Solving for alpha.water
Phase-1 volume fraction = 0.000826045239985186748737922  Min(alpha.water) = 0  Max(alpha.water) = 0.9999998937253568032090811
ExecutionTime = 10.98000000000000042632564 s  ClockTime = 11 s

Courant Number mean: 0.1273885350319063358703886 max: 0.250000000000008881784197
Interface Courant Number mean: 0.0001499469214436018711048698 max: 0.2500000000000027200464103
deltaT = 0.004166666666666684823439049
Time = 0.6625

PIMPLE: iteration 1
MULES: Solving for alpha.water
Phase-1 volume fraction = 0.0008260452399851882666209635  Min(alpha.water) = 0  Max(alpha.water) = 0.999999893725745159223095
ExecutionTime = 11.05000000000000071054274 s  ClockTime = 12 s

Courant Number mean: 0.1273885350319064191371154 max: 0.2500000000000090483176507
Interface Courant Number mean: 0.0001472929936304407966696922 max: 0.250000000000002886579864
deltaT = 0.004166666666666689160247738
Time = 0.666667

PIMPLE: iteration 1
MULES: Solving for alpha.water
Phase-1 volume fraction = 0.0008260452399851879413603117  Min(alpha.water) = 0  Max(alpha.water) = 0.999999893725745159223095
ExecutionTime = 11.10999999999999943156581 s  ClockTime = 12 s

Courant Number mean: 0.1273885350319065579149935 max: 0.2500000000000093258734069
Interface Courant Number mean: 0.000145966029723860394977375 max: 0.2500000000000031641356202
deltaT = 0.004166666666666693497056428
Time = 0.670833

PIMPLE: iteration 1
MULES: Solving for alpha.water
Phase-1 volume fraction = 0.0008260452399851883750411807  Min(alpha.water) = 0  Max(alpha.water) = 0.999999893725745159223095
ExecutionTime = 11.16999999999999992894573 s  ClockTime = 12 s

Courant Number mean: 0.127388535031906668937296 max: 0.2500000000000095479180118
Interface Courant Number mean: 0.0001419851380041189188498801 max: 0.2500000000000034416913763
deltaT = 0.004166666666666699568588594
Time = 0.675

PIMPLE: iteration 1
MULES: Solving for alpha.water
Phase-1 volume fraction = 0.0008260452399851885918816152  Min(alpha.water) = 0  Max(alpha.water) = 0.9999998937544539723276671
ExecutionTime = 11.23000000000000042632564 s  ClockTime = 12 s

Courant Number mean: 0.1273885350319068632263253 max: 0.2500000000000099364960704
Interface Courant Number mean: 0.0001433121019106996458028491 max: 0.250000000000003830269435
deltaT = 0.004166666666666707374844236
Time = 0.679167

PIMPLE: iteration 1
MULES: Solving for alpha.water
Phase-1 volume fraction = 0.0008260452399851887003018325  Min(alpha.water) = 0  Max(alpha.water) = 0.9999998937544539723276671
ExecutionTime = 11.30000000000000071054274 s  ClockTime = 12 s

Courant Number mean: 0.1273885350319071130265058 max: 0.2500000000000103805852802
Interface Courant Number mean: 0.0001526008492567638400068397 max: 0.250000000000004329869796
deltaT = 0.00416666666666671865054683
Time = 0.683333

PIMPLE: iteration 1
MULES: Solving for alpha.water
Phase-1 volume fraction = 0.0008260452399851885918816152  Min(alpha.water) = 0  Max(alpha.water) = 0.9999998937544539723276671
ExecutionTime = 11.35999999999999943156581 s  ClockTime = 12 s

Courant Number mean: 0.1273885350319074460934132 max: 0.2500000000000111022302463
Interface Courant Number mean: 0.0001552547770699253481228863 max: 0.2500000000000049960036108
deltaT = 0.004166666666666707374844236
Time = 0.6875

PIMPLE: iteration 1
MULES: Solving for alpha.water
Phase-1 volume fraction = 0.0008260452399851882666209635  Min(alpha.water) = 0  Max(alpha.water) = 0.9999998937545183652630953
ExecutionTime = 11.41999999999999992894573 s  ClockTime = 12 s

Courant Number mean: 0.1273885350319071130265058 max: 0.2500000000000103805852802
Interface Courant Number mean: 0.0001539278131633443501193742 max: 0.250000000000004329869796
deltaT = 0.004166666666666689160247738
Time = 0.691667

PIMPLE: iteration 1
MULES: Solving for alpha.water
Phase-1 volume fraction = 0.0008260452399851887003018325  Min(alpha.water) = 0  Max(alpha.water) = 0.9999998937546180632907067
ExecutionTime = 11.48000000000000042632564 s  ClockTime = 12 s

Courant Number mean: 0.1273885350319065579149935 max: 0.2500000000000093258734069
Interface Courant Number mean: 0.0001579087048830853654609457 max: 0.2500000000000032196467714
deltaT = 0.004166666666666707374844236
Time = 0.695833

PIMPLE: iteration 1
MULES: Solving for alpha.water
Phase-1 volume fraction = 0.0008260452399851885918816152  Min(alpha.water) = 0  Max(alpha.water) = 0.9999998937547095456679358
ExecutionTime = 11.53999999999999914734872 s  ClockTime = 12 s

Courant Number mean: 0.1273885350319071130265058 max: 0.2500000000000103805852802
Interface Courant Number mean: 0.000159235668789666634515001 max: 0.250000000000004329869796
deltaT = 0.004166666666666762885995468
Time = 0.7

PIMPLE: iteration 1
MULES: Solving for alpha.water
Phase-1 volume fraction = 0.0008260452399851870739985737  Min(alpha.water) = 0  Max(alpha.water) = 0.9999998937547095456679358
ExecutionTime = 11.91999999999999992894573 s  ClockTime = 12 s

--> FOAM Warning : 
    From void Foam::sampledSurfaces::countFields()
    in file sampledSurface/sampledSurfaces/sampledSurfaces.C at line 138
    
Cannot find registered field matching 1(alpha1)
Courant Number mean: 0.1273885350319088061166184 max: 0.2500000000000137112543541
Interface Courant Number mean: 0.0001565817409765075658538425 max: 0.2500000000000076605388699
deltaT = 0.004166666666666665741480813
Time = 0.704167

PIMPLE: iteration 1
MULES: Solving for alpha.water
Phase-1 volume fraction = 0.0008260452399851882666209635  Min(alpha.water) = 0  Max(alpha.water) = 0.9999998937742146098983653
ExecutionTime = 12.00999999999999978683718 s  ClockTime = 12 s

Courant Number mean: 0.1273885350319058362700275 max: 0.2500000000000078825834748
Interface Courant Number mean: 0.0001539278131633428864464413 max: 0.2500000000000018318679906
deltaT = 0.004166666666666666608842551
Time = 0.708333

PIMPLE: iteration 1
MULES: Solving for alpha.water
Phase-1 volume fraction = 0.0008260452399851873992592255  Min(alpha.water) = 0  Max(alpha.water) = 0.9999998937742148319429702
ExecutionTime = 12.07000000000000028421709 s  ClockTime = 13 s

Courant Number mean: 0.1273885350319058640256031 max: 0.2500000000000079380946261
Interface Courant Number mean: 0.0001565817409765039879866733 max: 0.2500000000000018873791419
deltaT = 0.004166666666666666608842551
Time = 0.7125

PIMPLE: iteration 1
MULES: Solving for alpha.water
Phase-1 volume fraction = 0.0008260452399851885918816152  Min(alpha.water) = 0  Max(alpha.water) = 0.9999998937742148319429702
ExecutionTime = 12.14000000000000056843419 s  ClockTime = 13 s

Courant Number mean: 0.1273885350319058640256031 max: 0.2500000000000079380946261
Interface Courant Number mean: 0.0001579087048830844709941534 max: 0.2500000000000018873791419
deltaT = 0.004166666666666667476204289
Time = 0.716667

PIMPLE: iteration 1
MULES: Solving for alpha.water
Phase-1 volume fraction = 0.0008260452399851888087220497  Min(alpha.water) = 0  Max(alpha.water) = 0.9999998937783164398851454
ExecutionTime = 12.21000000000000085265128 s  ClockTime = 13 s

Courant Number mean: 0.1273885350319058917811788 max: 0.2500000000000079936057773
Interface Courant Number mean: 0.0001512738853501818391163181 max: 0.2500000000000018873791419
deltaT = 0.004166666666666668343566027
Time = 0.720833

PIMPLE: iteration 1
MULES: Solving for alpha.water
Phase-1 volume fraction = 0.0008260452399851891339827015  Min(alpha.water) = 0  Max(alpha.water) = 0.9999998938137506510059893
ExecutionTime = 12.26999999999999957367436 s  ClockTime = 13 s

Courant Number mean: 0.1273885350319059195367544 max: 0.2500000000000080491169285
Interface Courant Number mean: 0.0001486199575370207375760861 max: 0.2500000000000019428902931
deltaT = 0.004166666666666669210927765
Time = 0.725

PIMPLE: iteration 1
MULES: Solving for alpha.water
Phase-1 volume fraction = 0.0008260452399851875076794427  Min(alpha.water) = 0  Max(alpha.water) = 0.9999998938198033648916407
ExecutionTime = 12.33000000000000007105427 s  ClockTime = 13 s

Courant Number mean: 0.12738853503190594729233 max: 0.2500000000000081046280798
Interface Courant Number mean: 0.0001499469214436013561088379 max: 0.2500000000000019984014443
deltaT = 0.004166666666666670078289503
Time = 0.729167

PIMPLE: iteration 1
MULES: Solving for alpha.water
Phase-1 volume fraction = 0.0008260452399851879413603117  Min(alpha.water) = 0  Max(alpha.water) = 0.9999998938451511998337651
ExecutionTime = 12.38000000000000078159701 s  ClockTime = 13 s

Courant Number mean: 0.1273885350319059750479056 max: 0.250000000000008160139231
Interface Courant Number mean: 0.0001526008492567625118591784 max: 0.2500000000000020539125956
deltaT = 0.004166666666666671813012979
Time = 0.733333

PIMPLE: iteration 1
MULES: Solving for alpha.water
Phase-1 volume fraction = 0.0008260452399851885918816152  Min(alpha.water) = 0  Max(alpha.water) = 0.9999998938451511998337651
ExecutionTime = 12.43999999999999950262008 s  ClockTime = 13 s

Courant Number mean: 0.1273885350319060028034812 max: 0.2500000000000082711615335
Interface Courant Number mean: 0.0001579087048830847691497509 max: 0.250000000000002164934898
deltaT = 0.004166666666666672680374717
Time = 0.7375

PIMPLE: iteration 1
MULES: Solving for alpha.water
Phase-1 volume fraction = 0.0008260452399851869655783565  Min(alpha.water) = 0  Max(alpha.water) = 0.9999998938451674090899246
ExecutionTime = 12.51999999999999957367436 s  ClockTime = 13 s

Courant Number mean: 0.1273885350319060305590568 max: 0.2500000000000083266726847
Interface Courant Number mean: 0.0001579087048830847962548052 max: 0.2500000000000022204460493
deltaT = 0.004166666666666674415098193
Time = 0.741667

PIMPLE: iteration 1
MULES: Solving for alpha.water
Phase-1 volume fraction = 0.0008260452399851870739985737  Min(alpha.water) = 0  Max(alpha.water) = 0.9999998938451674090899246
ExecutionTime = 12.58000000000000007105427 s  ClockTime = 13 s

Courant Number mean: 0.1273885350319060860702081 max: 0.2500000000000084376949872
Interface Courant Number mean: 0.0001592356687896653876825026 max: 0.2500000000000023314683517
deltaT = 0.004166666666666675282459931
Time = 0.745833

PIMPLE: iteration 1
MULES: Solving for alpha.water
Phase-1 volume fraction = 0.0008260452399851887003018325  Min(alpha.water) = 0  Max(alpha.water) = 0.9999998938506935441949963
ExecutionTime = 12.64000000000000056843419 s  ClockTime = 13 s

Courant Number mean: 0.1273885350319061138257837 max: 0.2500000000000084932061384
Interface Courant Number mean: 0.0001645435244159876720781294 max: 0.2500000000000023869795029
deltaT = 0.004166666666666677884545145
Time = 0.75

PIMPLE: iteration 1
MULES: Solving for alpha.water
Phase-1 volume fraction = 0.0008260452399851883750411807  Min(alpha.water) = 0  Max(alpha.water) = 0.999999893852828392049048
ExecutionTime = 12.71000000000000085265128 s  ClockTime = 13 s

Courant Number mean: 0.1273885350319061970925105 max: 0.2500000000000086597395921
Interface Courant Number mean: 0.0001592356687896654689976655 max: 0.2500000000000025535129566
deltaT = 0.004166666666666679619268621
Time = 0.754167

PIMPLE: iteration 1
MULES: Solving for alpha.water
Phase-1 volume fraction = 0.0008260452399851882666209635  Min(alpha.water) = 0  Max(alpha.water) = 0.9999998938632593814546112
ExecutionTime = 12.76999999999999957367436 s  ClockTime = 13 s

Courant Number mean: 0.1273885350319062526036618 max: 0.2500000000000087152507433
Interface Courant Number mean: 0.0001552547770699239386600621 max: 0.2500000000000026645352591
deltaT = 0.004166666666666682221353835
Time = 0.758333

PIMPLE: iteration 1
MULES: Solving for alpha.water
Phase-1 volume fraction = 0.0008260452399851885918816152  Min(alpha.water) = 0  Max(alpha.water) = 0.9999998938632593814546112
ExecutionTime = 12.83000000000000007105427 s  ClockTime = 13 s

Courant Number mean: 0.1273885350319063358703886 max: 0.250000000000008881784197
Interface Courant Number mean: 0.0001605626326962462230556888 max: 0.2500000000000030531133177
deltaT = 0.004166666666666684823439049
Time = 0.7625

PIMPLE: iteration 1
MULES: Solving for alpha.water
Phase-1 volume fraction = 0.0008260452399851885918816152  Min(alpha.water) = 0  Max(alpha.water) = 0.9999998938632831402273382
ExecutionTime = 12.89000000000000056843419 s  ClockTime = 13 s

Courant Number mean: 0.1273885350319064191371154 max: 0.2500000000000090483176507
Interface Courant Number mean: 0.0001592356687896657942583173 max: 0.2500000000000032196467714
deltaT = 0.004166666666666689160247738
Time = 0.766667

PIMPLE: iteration 1
MULES: Solving for alpha.water
Phase-1 volume fraction = 0.0008260452399851879413603117  Min(alpha.water) = 0  Max(alpha.water) = 0.9999998938823744243364899
ExecutionTime = 12.94999999999999928945726 s  ClockTime = 13 s

Courant Number mean: 0.1273885350319065579149935 max: 0.2500000000000093258734069
[...]
deltaT = 0.004166666666666662272033861
Time = 2.21667

PIMPLE: iteration 1
MULES: Solving for alpha.water
Phase-1 volume fraction = 0.0008260452399851887003018325  Min(alpha.water) = -3.977207705359807525658441e-85  Max(alpha.water) = 0.9999999014071039304951682
ExecutionTime = 43.21999999999999886313162 s  ClockTime = 44 s

Courant Number mean: 0.1273885350319057252477251 max: 0.2500000000000077160500211
Interface Courant Number mean: 0.0001008492569001211131398191 max: 0.25000000000000360822483
deltaT = 0.004166666666666651863693005
Time = 2.22083

PIMPLE: iteration 1
MULES: Solving for alpha.water
Phase-1 volume fraction = 0.000826045239985186748737922  Min(alpha.water) = -3.871779773674333239662345e-85  Max(alpha.water) = 0.9999999014071039304951682
ExecutionTime = 43.28999999999999914734872 s  ClockTime = 44 s

Courant Number mean: 0.1273885350319053921808177 max: 0.2500000000000070499162064
Interface Courant Number mean: 0.0001048301486198624672945695 max: 0.2500000000000029420910153
deltaT = 0.004166666666666640587990411
Time = 2.225

PIMPLE: iteration 1
MULES: Solving for alpha.water
Phase-1 volume fraction = 0.0008260452399851870739985737  Min(alpha.water) = -3.767176759178329309056573e-85  Max(alpha.water) = 0.9999999014071039304951682
ExecutionTime = 43.36999999999999744204615 s  ClockTime = 44 s

Courant Number mean: 0.1273885350319050591139103 max: 0.2500000000000063837823916
Interface Courant Number mean: 0.0001061571125264426928040337 max: 0.2500000000000022759572005
deltaT = 0.004166666666666651863693005
Time = 2.22917

PIMPLE: iteration 1
MULES: Solving for alpha.water
Phase-1 volume fraction = 0.000826045239985185447695315  Min(alpha.water) = -3.663469505608434738610954e-85  Max(alpha.water) = 0.9999999014071039304951682
ExecutionTime = 43.43999999999999772626325 s  ClockTime = 44 s

Courant Number mean: 0.1273885350319053921808177 max: 0.2500000000000070499162064
Interface Courant Number mean: 0.0001061571125264429909596312 max: 0.2500000000000029420910153
deltaT = 0.004166666666666664874119075
Time = 2.23333

PIMPLE: iteration 1
MULES: Solving for alpha.water
Phase-1 volume fraction = 0.00082604523998518761609966  Min(alpha.water) = -3.562386090988648113272789e-85  Max(alpha.water) = 0.9999999014071039304951682
ExecutionTime = 43.52000000000000312638804 s  ClockTime = 44 s

Courant Number mean: 0.1273885350319058085144519 max: 0.2500000000000078825834748
Interface Courant Number mean: 0.0001074840764330238398853445 max: 0.2500000000000037192471325
deltaT = 0.004166666666666651863693005
Time = 2.2375

PIMPLE: iteration 1
MULES: Solving for alpha.water
Phase-1 volume fraction = 0.0008260452399851869655783565  Min(alpha.water) = -3.462278707589091983977199e-85  Max(alpha.water) = 0.9999999014071039304951682
ExecutionTime = 43.59000000000000341060513 s  ClockTime = 44 s

Courant Number mean: 0.1273885350319053921808177 max: 0.2500000000000070499162064
Interface Courant Number mean: 0.0001101380042461846026123976 max: 0.1250000000000024424906542
deltaT = 0.004807692307692273264718708
Time = 2.24231

PIMPLE: iteration 1
MULES: Solving for alpha.water
Phase-1 volume fraction = 0.0008260452399851869655783565  Min(alpha.water) = -3.349822989086053060558266e-85  Max(alpha.water) = 0.999999892054474370794992
ExecutionTime = 43.65999999999999658939487 s  ClockTime = 44 s

Courant Number mean: 0.1469867711906595597604053 max: 0.288461538461545596856439
Interface Courant Number mean: 0.0001224889759920491660600411 max: 0.1442307692307715216717412
deltaT = 0.005769230769230748734344161
Time = 2.24808

PIMPLE: iteration 1
MULES: Solving for alpha.water
Phase-1 volume fraction = 0.0008260452399851857729559668  Min(alpha.water) = -3.216791073075633706621538e-85  Max(alpha.water) = 0.999999892054474370794992
ExecutionTime = 43.74000000000000198951966 s  ClockTime = 44 s

Courant Number mean: 0.176384125428792087886265 max: 0.3461538461538559707797447
Interface Courant Number mean: 0.0001469867711904595738992008 max: 0.1730769230769264588332135
deltaT = 0.006490384615384592326137181
Time = 2.25457

PIMPLE: iteration 1
MULES: Solving for alpha.water
Phase-1 volume fraction = 0.000826045239985186748737922  Min(alpha.water) = -3.070740329963515744154357e-85  Max(alpha.water) = 0.999999892054474370794992
ExecutionTime = 43.81000000000000227373675 s  ClockTime = 44 s

Courant Number mean: 0.1984321411073911023414951 max: 0.3894230769230879185549554
Interface Courant Number mean: 0.0001674271190591328272237459 max: 0.1947115384615422661873652
deltaT = 0.007572115384615329958251095
Time = 2.26214

PIMPLE: iteration 1
MULES: Solving for alpha.water
Phase-1 volume fraction = 0.000826045239985187182418791  Min(alpha.water) = -2.903680208733465607026248e-85  Max(alpha.water) = 0.9999998920544742597726895
ExecutionTime = 43.89000000000000056843419 s  ClockTime = 44 s

Courant Number mean: 0.2315041646252887774792839 max: 0.4543269230769342859055371
Interface Courant Number mean: 0.0001905086354726339727128082 max: 0.2271634615384651445513242
deltaT = 0.007572115384615329958251095
Time = 2.26971

PIMPLE: iteration 1
MULES: Solving for alpha.water
Phase-1 volume fraction = 0.0008260452399851869655783565  Min(alpha.water) = -2.737341745723601494172269e-85  Max(alpha.water) = 0.9999998920544742597726895
ExecutionTime = 43.96000000000000085265128 s  ClockTime = 44 s

Courant Number mean: 0.2315041646252887774792839 max: 0.4543269230769342859055371
Interface Courant Number mean: 0.0001880971337577905678345447 max: 0.2271634615384651445513242
deltaT = 0.007572115384615329958251095
Time = 2.27728

PIMPLE: iteration 1
MULES: Solving for alpha.water
Phase-1 volume fraction = 0.0008260452399851879413603117  Min(alpha.water) = -2.567773777818630927963512e-85  Max(alpha.water) = 0.9999998920544742597726895
ExecutionTime = 44.03000000000000113686838 s  ClockTime = 45 s

Courant Number mean: 0.2315041646252887774792839 max: 0.4543269230769342859055371
Interface Courant Number mean: 0.0001880971337577905136244361 max: 0.2271634615384651445513242
deltaT = 0.007572115384615329958251095
Time = 2.28486

PIMPLE: iteration 1
MULES: Solving for alpha.water
Phase-1 volume fraction = 0.0008260452399851888087220497  Min(alpha.water) = -2.387100626611516723258888e-85  Max(alpha.water) = 0.9999998802742534609322433
ExecutionTime = 44.10999999999999943156581 s  ClockTime = 45 s

Courant Number mean: 0.2315041646252887774792839 max: 0.4543269230769342859055371
Interface Courant Number mean: 0.0002025661440468514036799402 max: 0.2271634615384651445513242
deltaT = 0.007572115384615329958251095
Time = 2.29243

PIMPLE: iteration 1
MULES: Solving for alpha.water
Phase-1 volume fraction = 0.0008260452399851866403177048  Min(alpha.water) = -2.206253770613436765477044e-85  Max(alpha.water) = 0.9999998802742534609322433
ExecutionTime = 44.18999999999999772626325 s  ClockTime = 45 s

Courant Number mean: 0.2315041646252887774792839 max: 0.4543269230769342859055371
Interface Courant Number mean: 0.0001977431406171644312930874 max: 0.2271634615384651445513242
deltaT = 0.007572115384615329958251095
Time = 2.3

PIMPLE: iteration 1
MULES: Solving for alpha.water
Phase-1 volume fraction = 0.0008260452399851853392750978  Min(alpha.water) = -2.039076469270510084811754e-85  Max(alpha.water) = 0.9999998802742534609322433
ExecutionTime = 44.63000000000000255795385 s  ClockTime = 45 s

--> FOAM Warning : 
    From void Foam::sampledSurfaces::countFields()
    in file sampledSurface/sampledSurfaces/sampledSurfaces.C at line 138
    
Cannot find registered field matching 1(alpha1)
Courant Number mean: 0.2315041646252887774792839 max: 0.4543269230769342859055371
Interface Courant Number mean: 0.0001880971337577905678345447 max: 0.2271634615384651445513242
deltaT = 0.008333333333333340156579006
Time = 2.30833

PIMPLE: iteration 1
MULES: Solving for alpha.water
Phase-1 volume fraction = 0.000826045239985186748737922  Min(alpha.water) = -1.868956214859716168339349e-85  Max(alpha.water) = 0.9999998802742534609322433
ExecutionTime = 44.74000000000000198951966 s  ClockTime = 45 s

Courant Number mean: 0.2547770700638119500958112 max: 0.500000000000016320278462
Interface Courant Number mean: 0.0002016985138002427412756701 max: 0.250000000000005995204333
deltaT = 0.008333333333333343626025957
Time = 2.31667

PIMPLE: iteration 1
MULES: Solving for alpha.water
Phase-1 volume fraction = 0.0008260452399851865318974875  Min(alpha.water) = -1.712950969999728739202725e-85  Max(alpha.water) = 0.9999998802742534609322433
ExecutionTime = 44.81000000000000227373675 s  ClockTime = 45 s

Courant Number mean: 0.2547770700638120056069624 max: 0.5000000000000165423230669
Interface Courant Number mean: 0.0001990445859870817752607097 max: 0.2500000000000061062266354
deltaT = 0.008333333333333348830196385
Time = 2.325

PIMPLE: iteration 1
MULES: Solving for alpha.water
Phase-1 volume fraction = 0.000826045239985187182418791  Min(alpha.water) = -1.569693108816845717130994e-85  Max(alpha.water) = 0.9999998802742534609322433
ExecutionTime = 44.88000000000000255795385 s  ClockTime = 45 s

Courant Number mean: 0.2547770700638121721404161 max: 0.5000000000000168753899743
Interface Courant Number mean: 0.0002016985138002429581161046 max: 0.2500000000000072719608113
deltaT = 0.008333333333333352299643337
Time = 2.33333

PIMPLE: iteration 1
MULES: Solving for alpha.water
Phase-1 volume fraction = 0.000826045239985185881376184  Min(alpha.water) = -1.437925373355147492137777e-85  Max(alpha.water) = 0.9999998802742534609322433
ExecutionTime = 44.96000000000000085265128 s  ClockTime = 45 s

Courant Number mean: 0.2547770700638122831627186 max: 0.5000000000000170974345792
Interface Courant Number mean: 0.0002096602972397262627368003 max: 0.2500000000000073829831138
deltaT = 0.008333333333333359238537241
Time = 2.34167

PIMPLE: iteration 1
MULES: Solving for alpha.water
Phase-1 volume fraction = 0.0008260452399851881582007462  Min(alpha.water) = -1.316294015769592775168396e-85  Max(alpha.water) = 0.9999998802742534609322433
ExecutionTime = 45.03000000000000113686838 s  ClockTime = 46 s

Courant Number mean: 0.2547770700638125052073235 max: 0.5000000000000174305014866
Interface Courant Number mean: 0.0002070063694265653238268943 max: 0.2500000000000076050277187
deltaT = 0.008333333333333367912154621
Time = 2.35

PIMPLE: iteration 1
MULES: Solving for alpha.water
Phase-1 volume fraction = 0.000826045239985187182418791  Min(alpha.water) = -1.203192137105135819049999e-85  Max(alpha.water) = 0.9999998802742534609322433
ExecutionTime = 45.10999999999999943156581 s  ClockTime = 46 s

Courant Number mean: 0.2547770700638127827630797 max: 0.5000000000000179856129989
Interface Courant Number mean: 0.0002016985138002433917969736 max: 0.2500000000000078270723236
deltaT = 0.008333333333333378320495477
Time = 2.35833

PIMPLE: iteration 1
MULES: Solving for alpha.water
Phase-1 volume fraction = 0.0008260452399851875076794427  Min(alpha.water) = -1.096472276231034640163749e-85  Max(alpha.water) = 0.9999998802742534609322433
ExecutionTime = 45.17999999999999971578291 s  ClockTime = 46 s

Courant Number mean: 0.2547770700638131158299871 max: 0.5000000000000186517468137
Interface Courant Number mean: 0.0001990445859870825070971762 max: 0.250000000000008160139231
deltaT = 0.008333333333333392198283285
Time = 2.36667

PIMPLE: iteration 1
MULES: Solving for alpha.water
Phase-1 volume fraction = 0.0008260452399851881582007462  Min(alpha.water) = -9.928401819538003207144027e-86  Max(alpha.water) = 0.9999998802742534609322433
ExecutionTime = 45.25999999999999801048034 s  ClockTime = 46 s

Courant Number mean: 0.2547770700638135044080457 max: 0.5000000000000194289029309
Interface Courant Number mean: 0.0001990445859870828865679365 max: 0.2500000000000085487172896
deltaT = 0.008333333333333414749688473
Time = 2.375

PIMPLE: iteration 1
MULES: Solving for alpha.water
Phase-1 volume fraction = 0.0008260452399851860982166185  Min(alpha.water) = -8.867425874690987953070025e-86  Max(alpha.water) = 0.9999998802742534609322433
ExecutionTime = 45.32999999999999829469743 s  ClockTime = 46 s

Courant Number mean: 0.2547770700638142260530117 max: 0.5000000000000207611705605
Interface Courant Number mean: 0.0001937367303607611713784503 max: 0.2500000000000092703622556
deltaT = 0.008333333333333451178881468
Time = 2.38333

PIMPLE: iteration 1
MULES: Solving for alpha.water
Phase-1 volume fraction = 0.0008260452399851869655783565  Min(alpha.water) = -7.681650175999040811534609e-86  Max(alpha.water) = 0.9999998802742594561365763
ExecutionTime = 45.39999999999999857891453 s  ClockTime = 46 s

Courant Number mean: 0.2547770700638153362760363 max: 0.5000000000000229816166097
Interface Courant Number mean: 0.0002096602972397287021916884 max: 0.250000000000010325074129
deltaT = 0.008333333333333525771990935
Time = 2.39167

PIMPLE: iteration 1
MULES: Solving for alpha.water
Phase-1 volume fraction = 0.0008260452399851878329400945  Min(alpha.water) = -6.184340836096957587955185e-86  Max(alpha.water) = 0.9999998802742594561365763
ExecutionTime = 45.47999999999999687361196 s  ClockTime = 46 s

Courant Number mean: 0.2547770700638176122332368 max: 0.5000000000000274225087082
Interface Courant Number mean: 0.000214968152866052883941117 max: 0.2500000000000126010313295
deltaT = 0.00833333333333374781659586
Time = 2.4

PIMPLE: iteration 1
MULES: Solving for alpha.water
Phase-1 volume fraction = 0.0008260452399851882666209635  Min(alpha.water) = -4.022143512065710364814607e-86  Max(alpha.water) = 0.9999998802742594561365763
ExecutionTime = 45.89999999999999857891453 s  ClockTime = 46 s

--> FOAM Warning : 
    From void Foam::sampledSurfaces::countFields()
    in file sampledSurface/sampledSurfaces/sampledSurfaces.C at line 138
    
Cannot find registered field matching 1(alpha1)
Courant Number mean: 0.254777070063824384593687 max: 0.5000000000000407451850037
Interface Courant Number mean: 0.0001990445859870912349246647 max: 0.2500000000000192623694772
deltaT = 0.00833333333333330372738601
Time = 2.40833

PIMPLE: iteration 1
MULES: Solving for alpha.water
Phase-1 volume fraction = 0.0008260452399851887003018325  Min(alpha.water) = -5.235009627810148575344488e-87  Max(alpha.water) = 0.9999998802742594561365763
ExecutionTime = 46.00999999999999801048034 s  ClockTime = 47 s

Courant Number mean: 0.2547770700638107843616353 max: 0.5000000000000140998324127
Interface Courant Number mean: 0.0001990445859870806368484286 max: 0.2500000000000059396931817
deltaT = 0.00833333333333330372738601
Time = 2.41667

PIMPLE: iteration 1
MULES: Solving for alpha.water
Phase-1 volume fraction = 0.0008260452399851879413603117  Min(alpha.water) = -2.585528950355956959584882e-89  Max(alpha.water) = 0.9999998802742594561365763
ExecutionTime = 46.09000000000000341060513 s  ClockTime = 47 s

Courant Number mean: 0.2547770700638107843616353 max: 0.5000000000000140998324127
Interface Courant Number mean: 0.0001910828025475974135428958 max: 0.2500000000000059396931817
deltaT = 0.00833333333333330372738601
Time = 2.425

PIMPLE: iteration 1
MULES: Solving for alpha.water
Phase-1 volume fraction = 0.0008260452399851866403177048  Min(alpha.water) = -2.358970300979194054697302e-89  Max(alpha.water) = 0.9999998802747865900286683
ExecutionTime = 46.15999999999999658939487 s  ClockTime = 47 s

Courant Number mean: 0.2547770700638107843616353 max: 0.5000000000000140998324127
Interface Courant Number mean: 0.0001963906581739195353081967 max: 0.2500000000000059396931817
deltaT = 0.00833333333333330372738601
Time = 2.43333

PIMPLE: iteration 1
MULES: Solving for alpha.water
Phase-1 volume fraction = 0.000826045239985186748737922  Min(alpha.water) = -2.166973365395789002690199e-89  Max(alpha.water) = 0.9999998802747865900286683
ExecutionTime = 46.22999999999999687361196 s  ClockTime = 47 s

Courant Number mean: 0.2547770700638107843616353 max: 0.5000000000000140998324127
Interface Courant Number mean: 0.0002070063694265639685741787 max: 0.2500000000000059396931817
deltaT = 0.00833333333333330372738601
Time = 2.44167

PIMPLE: iteration 1
MULES: Solving for alpha.water
Phase-1 volume fraction = 0.0008260452399851873992592255  Min(alpha.water) = -1.990976174440894357980754e-89  Max(alpha.water) = 0.9999998802747865900286683
ExecutionTime = 46.31000000000000227373675 s  ClockTime = 47 s

Courant Number mean: 0.2547770700638107843616353 max: 0.5000000000000140998324127
Interface Courant Number mean: 0.0002043524416134029483491097 max: 0.2500000000000059396931817
deltaT = 0.00833333333333330372738601
Time = 2.45

PIMPLE: iteration 1
MULES: Solving for alpha.water
Phase-1 volume fraction = 0.0008260452399851882666209635  Min(alpha.water) = -1.826747687276069253665981e-89  Max(alpha.water) = 0.9999998802747865900286683
ExecutionTime = 46.38000000000000255795385 s  ClockTime = 47 s

Courant Number mean: 0.2547770700638107843616353 max: 0.5000000000000140998324127
Interface Courant Number mean: 0.0001963906581739196979385226 max: 0.2500000000000059396931817
deltaT = 0.00833333333333330372738601
Time = 2.45833

PIMPLE: iteration 1
MULES: Solving for alpha.water
Phase-1 volume fraction = 0.0008260452399851870739985737  Min(alpha.water) = -1.670750359064113786908509e-89  Max(alpha.water) = 0.9999998805211579577800762
ExecutionTime = 46.46000000000000085265128 s  ClockTime = 47 s

Courant Number mean: 0.2547770700638107843616353 max: 0.5000000000000140998324127
Interface Courant Number mean: 0.0001910828025475974135428958 max: 0.2500000000000059396931817
deltaT = 0.00833333333333330372738601
Time = 2.46667

PIMPLE: iteration 1
MULES: Solving for alpha.water
Phase-1 volume fraction = 0.000826045239985187182418791  Min(alpha.water) = -1.531161900862297151329375e-89  Max(alpha.water) = 0.9999998805211579577800762
ExecutionTime = 46.53000000000000113686838 s  ClockTime = 47 s

Courant Number mean: 0.2547770700638107843616353 max: 0.5000000000000140998324127
Interface Courant Number mean: 0.0002016985138002417383886605 max: 0.250000000000005995204333
deltaT = 0.00833333333333330372738601
Time = 2.475

PIMPLE: iteration 1
MULES: Solving for alpha.water
Phase-1 volume fraction = 0.000826045239985186315057053  Min(alpha.water) = -1.40388763266947516747953e-89  Max(alpha.water) = 0.9999998805211579577800762
ExecutionTime = 46.60000000000000142108547 s  ClockTime = 47 s

Courant Number mean: 0.2547770700638107843616353 max: 0.5000000000000140998324127
Interface Courant Number mean: 0.0001910828025475974406479501 max: 0.250000000000005995204333
deltaT = 0.00833333333333330372738601
Time = 2.48333

PIMPLE: iteration 1
MULES: Solving for alpha.water
Phase-1 volume fraction = 0.0008260452399851870739985737  Min(alpha.water) = -1.28687864414053257038313e-89  Max(alpha.water) = 0.9999998805211579577800762
ExecutionTime = 46.67999999999999971578291 s  ClockTime = 47 s

Courant Number mean: 0.2547770700638107843616353 max: 0.5000000000000140998324127
Interface Courant Number mean: 0.0002043524416134028670339468 max: 0.250000000000005995204333
deltaT = 0.00833333333333330372738601
Time = 2.49167

PIMPLE: iteration 1
MULES: Solving for alpha.water
Phase-1 volume fraction = 0.0008260452399851883750411807  Min(alpha.water) = -1.18066443912866150740917e-89  Max(alpha.water) = 0.9999998805211579577800762
ExecutionTime = 46.75 s  ClockTime = 47 s

Courant Number mean: 0.2547770700638107843616353 max: 0.5000000000000140998324127
Interface Courant Number mean: 0.0002149681528660472460898201 max: 0.250000000000005995204333
deltaT = 0.00833333333333330372738601
Time = 2.5

PIMPLE: iteration 1
MULES: Solving for alpha.water
Phase-1 volume fraction = 0.000826045239985186748737922  Min(alpha.water) = -1.082353263647460135119224e-89  Max(alpha.water) = 0.9999998805211579577800762
ExecutionTime = 47.21000000000000085265128 s  ClockTime = 48 s

--> FOAM Warning : 
    From void Foam::sampledSurfaces::countFields()
    in file sampledSurface/sampledSurfaces/sampledSurfaces.C at line 138
    
Cannot find registered field matching 1(alpha1)
End

